download/pglib-opf-master/pglib_opf_case3375wp_k.m
%%%%%%%%%%%%%%%%%%%%%%%%%%%%%%%%%%%%%%%%%%%%%%%%%%%%%%%%%%%%%%%%%%%%%%%%%%%
%%%%                                                                  %%%%%
%%%%    IEEE PES Power Grid Library - Optimal Power Flow - v19.05     %%%%%
%%%%          (https://github.com/power-grid-lib/pglib-opf)           %%%%%
%%%%               Benchmark Group - Typical Operations               %%%%%
%%%%                         08 - May - 2019                          %%%%%
%%%%                                                                  %%%%%
%%%%%%%%%%%%%%%%%%%%%%%%%%%%%%%%%%%%%%%%%%%%%%%%%%%%%%%%%%%%%%%%%%%%%%%%%%%
%
%   Power flow data for Polish system - winter 2007-08 evening peak.
%   Please see CASEFORMAT for details on the case file format.
%
%   This case represents the Polish 400, 220 and 110 kV networks during
%   winter 2007-08 evening peak conditions and includes some equivalents
%   of the German, Czech and Slovak networks.
%
%   Copyright (c) 2010 by Roman Korab <roman.korab@polsl.pl>
%   Licensed under the Creative Commons Attribution 4.0
%   International license, http://creativecommons.org/licenses/by/4.0/
%
function mpc = pglib_opf_case3375wp_k
mpc.version = '2';
mpc.baseMVA = 100.0;

%% bus data
%	bus_i	type	Pd	Qd	Gs	Bs	area	Vm	Va	baseKV	zone	Vmax	Vmin
mpc.bus = [
	10000	 1	 0.0	 0.0	 0.0	 0.0	 0	    1.00000	    0.00000	 400.0	 0	    1.05000	    0.95000;
	10001	 1	 0.0	 0.0	 0.0	 0.0	 0	    1.00000	    0.00000	 400.0	 0	    1.05000	    0.95000;
	10002	 1	 0.0	 0.0	 0.0	 0.0	 0	    1.03000	    0.00000	 220.0	 0	    1.11000	    0.95000;
	10003	 1	 0.0	 0.0	 0.0	 0.0	 0	    1.00000	    0.00000	 400.0	 0	    1.05000	    0.95000;
	10004	 1	 0.0	 0.0	 0.0	 0.0	 0	    1.00000	    0.00000	 400.0	 0	    1.05000	    0.95000;
	10005	 1	 0.0	 0.0	 0.0	 0.0	 0	    1.00000	    0.00000	 400.0	 0	    1.05000	    0.95000;
	10006	 1	 0.0	 0.0	 0.0	 0.0	 0	    1.00000	    0.00000	 400.0	 0	    1.05000	    0.95000;
	10007	 1	 0.0	 0.0	 0.0	 0.0	 0	    1.03000	    0.00000	 220.0	 0	    1.11000	    0.95000;
	10008	 1	 0.0	 0.0	 0.0	 0.0	 0	    1.03000	    0.00000	 220.0	 0	    1.11000	    0.95000;
	10009	 1	 0.0	 0.0	 0.0	 0.0	 0	    1.00000	    0.00000	 400.0	 0	    1.05000	    0.95000;
	10010	 1	 0.0	 0.0	 0.0	 0.0	 0	    1.00000	    0.00000	 400.0	 0	    1.05000	    0.95000;
	10011	 1	 0.0	 0.0	 0.0	 0.0	 0	    1.00000	    0.00000	 400.0	 0	    1.05000	    0.95000;
	10012	 1	 0.0	 0.0	 0.0	 0.0	 0	    1.00000	    0.00000	 400.0	 0	    1.05000	    0.95000;
	10013	 1	 0.0	 0.0	 0.0	 0.0	 0	    1.00000	    0.00000	 400.0	 0	    1.05000	    0.95000;
	10014	 1	 0.0	 0.0	 0.0	 0.0	 0	    1.00000	    0.00000	 400.0	 0	    1.05000	    0.95000;
	10015	 1	 0.0	 0.0	 0.0	 0.0	 0	    1.00000	    0.00000	 400.0	 0	    1.05000	    0.95000;
	10016	 1	 0.0	 0.0	 0.0	 0.0	 0	    1.00000	    0.00000	 400.0	 0	    1.05000	    0.95000;
	10017	 1	 0.0	 0.0	 0.0	 0.0	 0	    1.00000	    0.00000	 400.0	 0	    1.05000	    0.95000;
	10018	 1	 0.0	 0.0	 0.0	 0.0	 0	    1.00000	    0.00000	 400.0	 0	    1.05000	    0.95000;
	10019	 1	 0.0	 0.0	 0.0	 0.0	 0	    1.00000	    0.00000	 400.0	 0	    1.05000	    0.95000;
	10020	 1	 0.0	 0.0	 0.0	 0.0	 0	    1.00000	    0.00000	 400.0	 0	    1.05000	    0.95000;
	10021	 1	 0.0	 0.0	 0.0	 0.0	 0	    1.03000	    0.00000	 220.0	 0	    1.11000	    0.95000;
	10022	 1	 0.0	 0.0	 0.0	 0.0	 0	    1.03000	    0.00000	 220.0	 0	    1.11000	    0.95000;
	10023	 1	 0.0	 0.0	 0.0	 0.0	 0	    1.00000	    0.00000	 400.0	 0	    1.05000	    0.95000;
	10024	 1	 0.0	 0.0	 0.0	 0.0	 0	    1.00000	    0.00000	 400.0	 0	    1.05000	    0.95000;
	10025	 1	 0.0	 0.0	 0.0	 0.0	 0	    1.00000	    0.00000	 400.0	 0	    1.05000	    0.95000;
	10026	 1	 0.0	 0.0	 0.0	 0.0	 0	    1.00000	    0.00000	 400.0	 0	    1.05000	    0.95000;
	10027	 1	 0.0	 0.0	 0.0	 0.0	 0	    1.00000	    0.00000	 400.0	 0	    1.05000	    0.95000;
	10028	 1	 0.0	 0.0	 0.0	 0.0	 0	    1.00000	    0.00000	 400.0	 0	    1.05000	    0.95000;
	10029	 1	 0.0	 0.0	 0.0	 0.0	 0	    1.00000	    0.00000	 400.0	 0	    1.05000	    0.95000;
	10030	 1	 0.0	 0.0	 0.0	 0.0	 0	    1.00000	    0.00000	 400.0	 0	    1.05000	    0.95000;
	10031	 1	 0.0	 0.0	 0.0	 0.0	 0	    1.03000	    0.00000	 220.0	 0	    1.11000	    0.95000;
	10032	 1	 0.0	 0.0	 0.0	 0.0	 0	    1.00000	    0.00000	 400.0	 0	    1.05000	    0.95000;
	10033	 1	 0.0	 0.0	 0.0	 0.0	 0	    1.00000	    0.00000	 400.0	 0	    1.05000	    0.95000;
	10034	 1	 0.0	 0.0	 0.0	 0.0	 0	    1.00000	    0.00000	 400.0	 0	    1.05000	    0.95000;
	10035	 1	 0.0	 0.0	 0.0	 0.0	 0	    1.03000	    0.00000	 220.0	 0	    1.11000	    0.95000;
	10036	 1	 0.0	 0.0	 0.0	 0.0	 0	    1.03000	    0.00000	 220.0	 0	    1.11000	    0.95000;
	10037	 1	 0.0	 0.0	 0.0	 0.0	 0	    1.00000	    0.00000	 400.0	 0	    1.05000	    0.95000;
	10038	 1	 0.0	 0.0	 0.0	 0.0	 0	    1.00000	    0.00000	 400.0	 0	    1.05000	    0.95000;
	10039	 1	 0.0	 0.0	 0.0	 0.0	 0	    1.00000	    0.00000	 400.0	 0	    1.05000	    0.95000;
	10040	 1	 0.0	 0.0	 0.0	 0.0	 0	    1.00000	    0.00000	 400.0	 0	    1.05000	    0.95000;
	10041	 1	 0.0	 0.0	 0.0	 0.0	 0	    1.00000	    0.00000	 400.0	 0	    1.05000	    0.95000;
	10042	 1	 0.0	 0.0	 0.0	 0.0	 0	    1.00000	    0.00000	 400.0	 0	    1.05000	    0.95000;
	10043	 1	 0.0	 0.0	 0.0	 0.0	 0	    1.03000	    0.00000	 220.0	 0	    1.11000	    0.95000;
	10044	 1	 0.0	 0.0	 0.0	 0.0	 0	    1.03000	    0.00000	 220.0	 0	    1.11000	    0.95000;
	10045	 1	 0.0	 0.0	 0.0	 0.0	 0	    1.03000	    0.00000	 220.0	 0	    1.11000	    0.95000;
	10046	 1	 0.0	 0.0	 0.0	 0.0	 0	    1.03000	    0.00000	 220.0	 0	    1.11000	    0.95000;
	10047	 1	 0.0	 0.0	 0.0	 0.0	 0	    1.00000	    0.00000	 400.0	 0	    1.05000	    0.95000;
	10048	 1	 0.0	 0.0	 0.0	 0.0	 0	    1.00000	    0.00000	 400.0	 0	    1.05000	    0.95000;
	10049	 1	 0.0	 0.0	 0.0	 0.0	 0	    1.00000	    0.00000	 400.0	 0	    1.05000	    0.95000;
	10050	 1	 0.0	 0.0	 0.0	 0.0	 0	    1.00000	    0.00000	 400.0	 0	    1.05000	    0.95000;
	10051	 1	 0.0	 0.0	 0.0	 0.0	 0	    1.03000	    0.00000	 220.0	 0	    1.11000	    0.95000;
	10052	 1	 0.0	 0.0	 0.0	 0.0	 0	    1.00000	    0.00000	 400.0	 0	    1.05000	    0.95000;
	10053	 1	 0.0	 0.0	 0.0	 0.0	 0	    1.03000	    0.00000	 220.0	 0	    1.11000	    0.95000;
	10054	 1	 0.0	 0.0	 0.0	 0.0	 0	    1.03000	    0.00000	 220.0	 0	    1.11000	    0.95000;
	10055	 1	 0.0	 0.0	 0.0	 0.0	 0	    1.03000	    0.00000	 220.0	 0	    1.11000	    0.95000;
	10056	 1	 0.0	 0.0	 0.0	 0.0	 0	    1.00000	    0.00000	 400.0	 0	    1.05000	    0.95000;
	10057	 1	 0.0	 0.0	 0.0	 0.0	 0	    1.00000	    0.00000	 400.0	 0	    1.05000	    0.95000;
	10058	 1	 0.0	 0.0	 0.0	 0.0	 0	    1.03000	    0.00000	 220.0	 0	    1.11000	    0.95000;
	10059	 1	 0.0	 0.0	 0.0	 0.0	 0	    1.00000	    0.00000	 400.0	 0	    1.05000	    0.95000;
	10060	 1	 0.0	 0.0	 0.0	 0.0	 0	    1.00000	    0.00000	 400.0	 0	    1.05000	    0.95000;
	10061	 1	 0.0	 0.0	 0.0	 0.0	 0	    1.00000	    0.00000	 400.0	 0	    1.05000	    0.95000;
	10062	 1	 0.0	 0.0	 0.0	 0.0	 0	    1.00000	    0.00000	 400.0	 0	    1.05000	    0.95000;
	10063	 1	 0.0	 0.0	 0.0	 0.0	 0	    1.00000	    0.00000	 400.0	 0	    1.05000	    0.95000;
	10064	 1	 0.0	 0.0	 0.0	 0.0	 0	    1.03000	    0.00000	 220.0	 0	    1.11000	    0.95000;
	10065	 1	 0.0	 0.0	 0.0	 0.0	 0	    1.00000	    0.00000	 400.0	 0	    1.05000	    0.95000;
	10066	 1	 0.0	 0.0	 0.0	 0.0	 0	    1.00000	    0.00000	 400.0	 0	    1.05000	    0.95000;
	10067	 1	 0.0	 0.0	 0.0	 0.0	 0	    1.03000	    0.00000	 220.0	 0	    1.11000	    0.95000;
	10068	 1	 0.0	 0.0	 0.0	 0.0	 0	    1.00000	    0.00000	 400.0	 0	    1.05000	    0.95000;
	10069	 1	 0.0	 0.0	 0.0	 0.0	 0	    1.03000	    0.00000	 220.0	 0	    1.11000	    0.95000;
	10070	 1	 0.0	 0.0	 0.0	 0.0	 0	    1.00000	    0.00000	 400.0	 0	    1.05000	    0.95000;
	10071	 2	 16.0	 8.0	 0.0	 0.0	 0	    1.03000	    0.00000	 220.0	 0	    1.11000	    0.95000;
	10072	 1	 0.0	 0.0	 0.0	 0.0	 0	    1.03000	    0.00000	 220.0	 0	    1.11000	    0.95000;
	10073	 1	 0.0	 0.0	 0.0	 0.0	 1	    1.03000	    0.00000	 220.0	 0	    1.11000	    0.95000;
	10074	 1	 0.0	 0.0	 0.0	 0.0	 0	    1.03000	    0.00000	 220.0	 0	    1.11000	    0.95000;
	10075	 1	 0.0	 0.0	 0.0	 0.0	 0	    1.03000	    0.00000	 220.0	 0	    1.11000	    0.95000;
	10076	 1	 0.0	 0.0	 0.0	 0.0	 0	    1.00000	    0.00000	 400.0	 0	    1.05000	    0.95000;
	10077	 1	 0.0	 0.0	 0.0	 0.0	 0	    1.00000	    0.00000	 400.0	 0	    1.05000	    0.95000;
	10078	 1	 305.5	 -14.0	 0.0	 0.0	 0	    1.00000	    0.00000	 400.0	 0	    1.05000	    0.95000;
	10079	 2	 -1529.6	 4542.9	 0.0	 0.0	 0	    1.00000	    0.00000	 400.0	 0	    1.05000	    0.95000;
	10080	 2	 -159.1	 -181.0	 0.0	 0.0	 0	    1.00000	    0.00000	 400.0	 0	    1.05000	    0.95000;
	10081	 1	 -1078.3	 -374.1	 0.0	 0.0	 0	    1.00000	    0.00000	 400.0	 0	    1.05000	    0.95000;
	10082	 1	 943.2	 310.2	 0.0	 0.0	 0	    1.00000	    0.00000	 400.0	 0	    1.05000	    0.95000;
	10083	 1	 97.0	 26.0	 0.0	 0.0	 0	    1.00000	    0.00000	 400.0	 0	    1.05000	    0.95000;
	10084	 1	 0.6	 160.0	 0.0	 0.0	 0	    1.00000	    0.00000	 400.0	 0	    1.05000	    0.95000;
	10085	 1	 161.6	 183.6	 0.0	 0.0	 0	    1.00000	    0.00000	 400.0	 0	    1.05000	    0.95000;
	10086	 1	 288.6	 221.6	 0.0	 0.0	 0	    1.00000	    0.00000	 400.0	 0	    1.05000	    0.95000;
	10087	 1	 0.0	 0.0	 0.0	 0.0	 0	    1.00000	    0.00000	 400.0	 0	    1.05000	    0.95000;
	10088	 1	 0.0	 0.0	 0.0	 0.0	 0	    1.03000	    0.00000	 220.0	 0	    1.11000	    0.95000;
	10089	 1	 0.0	 0.0	 0.0	 0.0	 0	    1.03000	    0.00000	 220.0	 0	    1.11000	    0.95000;
	10090	 2	 274.4	 279.6	 0.0	 0.0	 0	    1.00000	    0.00000	 400.0	 0	    1.05000	    0.95000;
	10091	 1	 94.2	 111.8	 0.0	 0.0	 0	    1.00000	    0.00000	 400.0	 0	    1.05000	    0.95000;
	10092	 1	 0.0	 0.0	 0.0	 0.0	 0	    1.03000	    0.00000	 220.0	 0	    1.11000	    0.95000;
	10093	 1	 0.0	 0.0	 0.0	 0.0	 0	    1.03000	    0.00000	 220.0	 0	    1.11000	    0.95000;
	10094	 2	 0.0	 0.0	 0.0	 0.0	 0	    1.00000	    0.00000	 400.0	 0	    1.05000	    0.95000;
	10095	 2	 4.4	 -2590.1	 0.0	 0.0	 0	    1.00000	    0.00000	 400.0	 0	    1.05000	    0.95000;
	10096	 1	 488.0	 79.1	 0.0	 0.0	 0	    1.00000	    0.00000	 400.0	 0	    1.05000	    0.95000;
	10097	 1	 601.0	 147.9	 0.0	 0.0	 0	    1.00000	    0.00000	 400.0	 0	    1.05000	    0.95000;
	10098	 1	 527.0	 265.1	 0.0	 0.0	 0	    1.00000	    0.00000	 400.0	 0	    1.05000	    0.95000;
	10099	 1	 0.0	 0.0	 0.0	 0.0	 0	    1.00000	    0.00000	 400.0	 0	    1.05000	    0.95000;
	10100	 2	 0.0	 0.0	 0.0	 0.0	 0	    1.00000	    0.00000	 400.0	 0	    1.05000	    0.95000;
	10101	 1	 0.0	 0.0	 0.0	 0.0	 0	    1.03000	    0.00000	 220.0	 0	    1.11000	    0.95000;
	10102	 1	 120.0	 25.0	 0.0	 0.0	 0	    1.03000	    0.00000	 220.0	 0	    1.11000	    0.95000;
	10103	 1	 0.0	 0.0	 0.0	 0.0	 0	    1.00000	    0.00000	 400.0	 0	    1.05000	    0.95000;
	10104	 2	 200.2	 48.7	 0.0	 0.0	 0	    1.00000	    0.00000	 400.0	 0	    1.05000	    0.95000;
	10105	 1	 0.0	 0.0	 0.0	 0.0	 0	    1.03000	    0.00000	 220.0	 0	    1.11000	    0.95000;
	10106	 1	 0.0	 0.0	 0.0	 0.0	 0	    1.00000	    0.00000	 400.0	 0	    1.05000	    0.95000;
	10107	 1	 0.0	 0.0	 0.0	 0.0	 0	    1.00000	    0.00000	 400.0	 0	    1.05000	    0.95000;
	10108	 1	 0.0	 0.0	 0.0	 0.0	 0	    1.00000	    0.00000	 400.0	 0	    1.05000	    0.95000;
	10109	 1	 0.0	 0.0	 0.0	 0.0	 0	    1.00000	    0.00000	 400.0	 0	    1.05000	    0.95000;
	10110	 1	 0.0	 0.0	 0.0	 0.0	 0	    1.00000	    0.00000	 400.0	 0	    1.05000	    0.95000;
	10111	 1	 0.0	 0.0	 0.0	 0.0	 0	    1.00000	    0.00000	 400.0	 0	    1.05000	    0.95000;
	10112	 1	 0.0	 0.0	 0.0	 0.0	 0	    1.03000	    0.00000	 220.0	 0	    1.11000	    0.95000;
	10113	 1	 0.0	 0.0	 0.0	 0.0	 0	    1.00000	    0.00000	 400.0	 0	    1.05000	    0.95000;
	10114	 1	 0.0	 0.0	 0.0	 0.0	 0	    1.03000	    0.00000	 220.0	 0	    1.11000	    0.95000;
	10115	 2	 0.0	 0.0	 0.0	 0.0	 0	    1.00000	    0.00000	 400.0	 0	    1.05000	    0.95000;
	10116	 2	 0.0	 0.0	 0.0	 0.0	 0	    1.00000	    0.00000	 400.0	 0	    1.05000	    0.95000;
	10117	 1	 0.0	 0.0	 0.0	 0.0	 0	    1.00000	    0.00000	 400.0	 0	    1.05000	    0.95000;
	10118	 2	 0.0	 0.0	 0.0	 0.0	 0	    1.00000	    0.00000	 400.0	 0	    1.05000	    0.95000;
	10119	 1	 0.0	 0.0	 0.0	 0.0	 0	    1.00000	    0.00000	 400.0	 0	    1.05000	    0.95000;
	10120	 1	 0.0	 0.0	 0.0	 0.0	 0	    1.00000	    0.00000	 400.0	 0	    1.05000	    0.95000;
	10121	 1	 80.0	 20.0	 0.0	 0.0	 0	    1.03000	    0.00000	 220.0	 0	    1.11000	    0.95000;
	10122	 1	 0.0	 0.0	 0.0	 0.0	 0	    1.03000	    0.00000	 220.0	 0	    1.11000	    0.95000;
	10123	 1	 0.0	 0.0	 0.0	 0.0	 0	    1.00000	    0.00000	 400.0	 0	    1.05000	    0.95000;
	10124	 1	 0.0	 0.0	 0.0	 0.0	 0	    1.00000	    0.00000	 400.0	 0	    1.05000	    0.95000;
	10125	 1	 0.0	 0.0	 0.0	 0.0	 0	    1.00000	    0.00000	 400.0	 0	    1.05000	    0.95000;
	10126	 2	 0.0	 0.0	 0.0	 0.0	 0	    1.00000	    0.00000	 400.0	 0	    1.05000	    0.95000;
	10127	 1	 0.0	 0.0	 0.0	 0.0	 0	    1.03000	    0.00000	 220.0	 0	    1.11000	    0.95000;
	10128	 1	 0.0	 0.0	 0.0	 0.0	 0	    1.03000	    0.00000	 220.0	 0	    1.11000	    0.95000;
	10129	 2	 0.2	 100.0	 0.0	 0.0	 0	    1.00000	    0.00000	 400.0	 0	    1.05000	    0.95000;
	10130	 1	 0.0	 0.0	 0.0	 0.0	 0	    1.00000	    0.00000	 400.0	 0	    1.05000	    0.95000;
	10131	 1	 0.0	 0.0	 0.0	 0.0	 0	    1.00000	    0.00000	 400.0	 0	    1.05000	    0.95000;
	10132	 2	 0.0	 0.0	 0.0	 0.0	 0	    1.00000	    0.00000	 400.0	 0	    1.05000	    0.95000;
	10133	 1	 0.0	 0.0	 0.0	 0.0	 0	    1.00000	    0.00000	 400.0	 0	    1.05000	    0.95000;
	10134	 1	 0.0	 0.0	 0.0	 0.0	 0	    1.00000	    0.00000	 400.0	 0	    1.05000	    0.95000;
	10135	 1	 0.0	 0.0	 0.0	 0.0	 0	    1.03000	    0.00000	 220.0	 0	    1.11000	    0.95000;
	10136	 1	 0.0	 0.0	 0.0	 0.0	 0	    1.03000	    0.00000	 220.0	 0	    1.11000	    0.95000;
	10137	 1	 0.0	 0.0	 0.0	 0.0	 0	    1.03000	    0.00000	 220.0	 0	    1.11000	    0.95000;
	10138	 1	 0.0	 0.0	 0.0	 0.0	 0	    1.00000	    0.00000	 400.0	 0	    1.05000	    0.95000;
	10139	 2	 0.0	 0.0	 0.0	 0.0	 0	    1.00000	    0.00000	 400.0	 0	    1.05000	    0.95000;
	10140	 2	 0.0	 0.0	 0.0	 0.0	 0	    1.00000	    0.00000	 400.0	 0	    1.05000	    0.95000;
	10141	 2	 0.0	 0.0	 0.0	 0.0	 0	    1.00000	    0.00000	 400.0	 0	    1.05000	    0.95000;
	10142	 1	 0.0	 0.0	 0.0	 0.0	 0	    1.00000	    0.00000	 400.0	 0	    1.05000	    0.95000;
	10143	 1	 0.0	 0.0	 0.0	 0.0	 0	    1.00000	    0.00000	 400.0	 0	    1.05000	    0.95000;
	10144	 1	 0.0	 0.0	 0.0	 0.0	 0	    1.00000	    0.00000	 400.0	 0	    1.05000	    0.95000;
	10145	 1	 0.0	 0.0	 0.0	 0.0	 0	    1.00000	    0.00000	 400.0	 0	    1.05000	    0.95000;
	10146	 2	 0.0	 0.0	 0.0	 0.0	 0	    1.03000	    0.00000	 220.0	 0	    1.11000	    0.95000;
	10147	 1	 0.0	 0.0	 0.0	 0.0	 0	    1.00000	    0.00000	 400.0	 0	    1.05000	    0.95000;
	10148	 1	 0.0	 0.0	 0.0	 0.0	 0	    1.03000	    0.00000	 220.0	 0	    1.11000	    0.95000;
	10149	 1	 0.0	 0.0	 0.0	 0.0	 0	    1.03000	    0.00000	 220.0	 0	    1.11000	    0.95000;
	10150	 2	 0.0	 0.0	 0.0	 0.0	 0	    1.00000	    0.00000	 400.0	 0	    1.05000	    0.95000;
	10151	 1	 0.0	 0.0	 0.0	 0.0	 0	    1.00000	    0.00000	 400.0	 0	    1.05000	    0.95000;
	10152	 1	 0.0	 0.0	 0.0	 0.0	 0	    1.00000	    0.00000	 400.0	 0	    1.05000	    0.95000;
	10153	 1	 0.0	 0.0	 0.0	 0.0	 0	    1.00000	    0.00000	 400.0	 0	    1.05000	    0.95000;
	10154	 1	 80.0	 20.0	 0.0	 0.0	 0	    1.03000	    0.00000	 220.0	 0	    1.11000	    0.95000;
	10155	 1	 0.0	 0.0	 0.0	 0.0	 0	    1.03000	    0.00000	 220.0	 0	    1.11000	    0.95000;
	10156	 1	 0.0	 0.0	 0.0	 0.0	 0	    1.00000	    0.00000	 400.0	 0	    1.05000	    0.95000;
	10157	 1	 0.0	 0.0	 0.0	 0.0	 0	    1.03000	    0.00000	 220.0	 0	    1.11000	    0.95000;
	10158	 1	 0.0	 0.0	 0.0	 0.0	 0	    1.00000	    0.00000	 400.0	 0	    1.05000	    0.95000;
	10159	 1	 0.0	 0.0	 0.0	 0.0	 0	    1.03000	    0.00000	 220.0	 0	    1.11000	    0.95000;
	10160	 1	 0.0	 0.0	 0.0	 0.0	 0	    1.03000	    0.00000	 220.0	 0	    1.11000	    0.95000;
	10161	 1	 0.0	 0.0	 0.0	 0.0	 0	    1.00000	    0.00000	 400.0	 0	    1.05000	    0.95000;
	10162	 1	 0.0	 0.0	 0.0	 0.0	 0	    1.03000	    0.00000	 220.0	 0	    1.11000	    0.95000;
	10163	 1	 0.0	 0.0	 0.0	 0.0	 0	    1.03000	    0.00000	 220.0	 0	    1.11000	    0.95000;
	10164	 1	 0.0	 0.0	 0.0	 0.0	 0	    1.00000	    0.00000	 400.0	 0	    1.05000	    0.95000;
	10165	 1	 0.0	 0.0	 0.0	 0.0	 0	    1.00000	    0.00000	 400.0	 0	    1.05000	    0.95000;
	10166	 1	 0.0	 0.0	 0.0	 0.0	 0	    1.03000	    0.00000	 220.0	 0	    1.11000	    0.95000;
	10167	 1	 0.0	 0.0	 0.0	 0.0	 0	    1.00000	    0.00000	 400.0	 0	    1.05000	    0.95000;
	10168	 1	 0.0	 0.0	 0.0	 0.0	 0	    1.00000	    0.00000	 400.0	 0	    1.05000	    0.95000;
	10169	 1	 0.0	 0.0	 0.0	 0.0	 0	    1.00000	    0.00000	 400.0	 0	    1.05000	    0.95000;
	10170	 1	 0.0	 0.0	 0.0	 0.0	 0	    1.00000	    0.00000	 400.0	 0	    1.05000	    0.95000;
	10171	 2	 -104.8	 -159.0	 0.0	 0.0	 0	    1.00000	    0.00000	 400.0	 0	    1.05000	    0.95000;
	10172	 1	 247.4	 -57.5	 0.0	 0.0	 0	    1.00000	    0.00000	 400.0	 0	    1.05000	    0.95000;
	10173	 1	 247.4	 -57.5	 0.0	 0.0	 0	    1.00000	    0.00000	 400.0	 0	    1.05000	    0.95000;
	10174	 1	 371.5	 403.5	 0.0	 0.0	 0	    1.00000	    0.00000	 400.0	 0	    1.05000	    0.95000;
	10176	 2	 -249.9	 162.6	 0.0	 0.0	 0	    1.00000	    0.00000	 400.0	 0	    1.05000	    0.95000;
	10177	 2	 -249.9	 162.6	 0.0	 0.0	 0	    1.00000	    0.00000	 400.0	 0	    1.05000	    0.95000;
	10178	 1	 52.5	 207.2	 0.0	 0.0	 0	    1.00000	    0.00000	 400.0	 0	    1.05000	    0.95000;
	10179	 1	 379.5	 54.6	 0.0	 0.0	 0	    1.00000	    0.00000	 400.0	 0	    1.05000	    0.95000;
	10180	 1	 73.6	 -95.6	 0.0	 0.0	 0	    1.03000	    0.00000	 220.0	 0	    1.11000	    0.95000;
	10181	 1	 73.6	 -95.6	 0.0	 0.0	 0	    1.03000	    0.00000	 220.0	 0	    1.11000	    0.95000;
	10182	 1	 107.2	 -44.4	 0.0	 0.0	 0	    1.00000	    0.00000	 400.0	 0	    1.05000	    0.95000;
	10183	 1	 86.0	 8.0	 0.0	 0.0	 0	    1.00000	    0.00000	 400.0	 0	    1.05000	    0.95000;
	10184	 1	 70.0	 49.0	 0.0	 0.0	 0	    1.03000	    0.00000	 220.0	 0	    1.11000	    0.95000;
	10185	 1	 0.0	 0.0	 0.0	 0.0	 0	    1.00000	    0.00000	 400.0	 0	    1.05000	    0.95000;
	10186	 2	 0.0	 0.0	 0.0	 0.0	 0	    1.03000	    0.00000	 220.0	 0	    1.11000	    0.95000;
	10187	 2	 0.0	 0.0	 0.0	 0.0	 0	    1.03000	    0.00000	 220.0	 0	    1.11000	    0.95000;
	10188	 2	 0.0	 0.0	 0.0	 0.0	 0	    1.00000	    0.00000	 400.0	 0	    1.05000	    0.95000;
	10189	 2	 10.2	 0.0	 0.0	 0.0	 0	    1.00000	    0.00000	 400.0	 0	    1.05000	    0.95000;
	10190	 2	 0.0	 0.0	 0.0	 0.0	 0	    1.00000	    0.00000	 400.0	 0	    1.05000	    0.95000;
	10191	 2	 0.0	 0.0	 0.0	 0.0	 0	    1.00000	    0.00000	 400.0	 0	    1.05000	    0.95000;
	10192	 2	 0.0	 0.0	 0.0	 0.0	 0	    1.03000	    0.00000	 220.0	 0	    1.11000	    0.95000;
	10193	 1	 0.0	 0.0	 0.0	 0.0	 0	    1.03000	    0.00000	 220.0	 0	    1.11000	    0.95000;
	10194	 2	 0.0	 0.0	 0.0	 0.0	 0	    1.00000	    0.00000	 400.0	 0	    1.05000	    0.95000;
	10195	 1	 0.0	 0.0	 0.0	 0.0	 0	    1.00000	    0.00000	 400.0	 0	    1.05000	    0.95000;
	10196	 2	 0.0	 0.0	 0.0	 0.0	 0	    1.00000	    0.00000	 400.0	 0	    1.05000	    0.95000;
	10197	 1	 295.0	 51.9	 0.0	 0.0	 0	    1.00000	    0.00000	 400.0	 0	    1.05000	    0.95000;
	10198	 1	 0.0	 0.0	 0.0	 0.0	 0	    1.00000	    0.00000	 400.0	 0	    1.05000	    0.95000;
	10199	 1	 308.0	 40.0	 0.0	 0.0	 0	    1.03000	    0.00000	 220.0	 0	    1.11000	    0.95000;
	10200	 1	 0.0	 0.0	 0.0	 0.0	 0	    1.03000	    0.00000	 220.0	 0	    1.11000	    0.95000;
...
];

%% generator data
%	bus	Pg	Qg	Qmax	Qmin	Vg	mBase	status	Pmax	Pmin
mpc.gen = [
	10071	 169.25	 0.0	 103.0	 -103.0	 1.03	 285.0	 1	 204.6	 133.9; % NG
	10079	 454.9	 1862.5	 4000	 -275.0	 1.0	 2031.0	 1	 549.9	 359.9; % COW
	10080	 9.6	 0.0	 6.0	 -6.0	 1.0	 119.0	 1	 11.6	 7.6; % NG
	10090	 518.7	 0.0	 314.0	 -314.0	 1.0	 806.0	 1	 627.0	 410.4; % COW
	10094	 700.7	 0.0	 424.0	 -424.0	 1.0	 970.0	 1	 847.0	 554.4; % COW
	10095	 681.65	 0.0	 621.0	 -621.0	 1.0	 1439.0	 1	 1241.5	 121.8; % NUC
	10100	 1601.6	 0.0	 968.0	 -968.0	 1.0	 2202.0	 1	 1936.0	 1267.2; % COW
	10104	 682.5	 0.0	 413.0	 -413.0	 1.0	 939.0	 1	 825.0	 540.0; % COW
	10115	 354.9	 0.0	 215.0	 -215.0	 1.0	 492.0	 1	 429.0	 280.8; % NG
	10116	 354.9	 0.0	 215.0	 -215.0	 1.0	 492.0	 1	 429.0	 280.8; % NG
	10118	 1365.0	 0.0	 825.0	 -825.0	 1.0	 1876.0	 1	 1650.0	 1080.0; % NG
	10126	 536.9	 0.0	 325.0	 -325.0	 1.0	 786.0	 1	 649.0	 424.8; % NG
	10129	 2093.0	 0.0	 1265.0	 -1265.0	 1.0	 2974.0	 1	 2530.0	 1656.0; % COW
	10132	 737.1	 0.0	 446.0	 -446.0	 1.0	 1014.0	 1	 891.0	 583.2; % COW
	10139	 819.0	 0.0	 495.0	 -495.0	 1.0	 1143.0	 1	 990.0	 648.0; % COW
	10140	 1228.5	 0.0	 743.0	 -743.0	 1.0	 1705.0	 1	 1485.0	 972.0; % COW
	10141	 1547.0	 0.0	 935.0	 -935.0	 1.0	 2125.0	 1	 1870.0	 1224.0; % COW
	10146	 145.6	 0.0	 88.0	 -88.0	 1.03	 224.0	 1	 176.0	 115.2; % NG
	10150	 254.8	 0.0	 154.0	 -154.0	 1.0	 427.0	 1	 308.0	 201.6; % NG
	10171	 106.95	 0.0	 65.0	 -65.0	 1.0	 715.0	 1	 129.3	 84.6; % NG
	10176	 241.4	 0.0	 146.0	 -146.0	 1.0	 346.0	 1	 291.8	 191.0; % NG
	10177	 241.4	 0.0	 146.0	 -146.0	 1.0	 346.0	 1	 291.8	 191.0; % NG
	10186	 438.65	 0.0	 268.0	 -268.0	 1.03	 618.0	 1	 534.6	 342.7; % NG
	10187	 438.65	 0.0	 268.0	 -268.0	 1.03	 618.0	 1	 534.6	 342.7; % NG
	10188	 439.55	 0.0	 266.0	 -266.0	 1.0	 618.0	 1	 531.3	 347.8; % NG
	10189	 412.65	 0.0	 272.0	 -272.0	 1.0	 620.0	 1	 542.3	 283.0; % NG
	10190	 486.05	 0.0	 301.0	 -301.0	 1.0	 683.0	 1	 600.6	 371.5; % COW
	10191	 485.15	 0.0	 300.0	 -300.0	 1.0	 682.0	 1	 599.5	 370.8; % COW
	10192	 179.55	 0.0	 124.0	 -124.0	 1.03	 281.0	 1	 247.5	 111.6; % NG
	10194	 103.9	 0.0	 72.0	 -72.0	 1.0	 184.0	 1	 143.0	 64.8; % NG
	10196	 136.5	 0.0	 83.0	 -83.0	 1.0	 215.0	 1	 165.0	 108.0; % NG
	10223	 62.75	 0.0	 63.0	 -63.0	 1.0	 189.0	 1	 125.5	 0.0; % NG
	10225	 175.3	 0.0	 137.0	 -137.0	 1.035	 333.0	 1	 272.8	 77.8; % NG
	10226	 87.7	 0.0	 71.0	 -71.0	 1.035	 198.0	 1	 140.8	 34.6; % NG
	10227	 14.55	 0.0	 9.0	 -9.0	 1.035	 191.0	 1	 17.6	 11.5; % NG
	10228	 23.65	 0.0	 15.0	 -15.0	 1.035	 135.0	 1	 28.6	 18.7; % NG
	10229	 50.05	 0.0	 31.0	 -31.0	 1.035	 85.0	 1	 60.5	 39.6; % NG
	10230	 0.05	 0.0	 1.0	 -1.0	 1.035	 132.0	 1	 0.1	 0.0; % PEL
	10232	 14.2	 0.0	 9.0	 -9.0	 1.035	 64.0	 1	 17.2	 11.2; % NG
	10233	 57.35	 0.0	 35.0	 -35.0	 1.035	 79.0	 1	 69.3	 45.4; % PEL
	10234	 4.55	 0.0	 3.0	 -3.0	 1.035	 115.0	 1	 5.5	 3.6; % NG
	10235	 36.4	 0.0	 22.0	 -22.0	 1.035	 83.0	 1	 44.0	 28.8; % NG
	10236	 151.05	 0.0	 92.0	 -92.0	 1.035	 219.0	 1	 182.6	 119.5; % NG
	10237	 63.7	 0.0	 39.0	 -39.0	 1.035	 121.0	 1	 77.0	 50.4; % COW
	10238	 78.25	 0.0	 48.0	 -48.0	 1.035	 179.0	 1	 94.6	 61.9; % COW
	10239	 79.15	 0.0	 48.0	 -48.0	 1.035	 109.0	 1	 95.7	 62.6; % NG
	10240	 0.05	 0.0	 1.0	 -1.0	 1.035	 128.0	 1	 0.1	 0.0; % NG
	10246	 184.75	 0.0	 112.0	 -112.0	 1.035	 262.0	 1	 223.3	 146.2; % NG
	10247	 129.2	 0.0	 79.0	 -79.0	 1.035	 215.0	 1	 156.2	 102.2; % NG
	10248	 154.7	 0.0	 94.0	 -94.0	 1.035	 241.0	 1	 187.0	 122.4; % NG
	10249	 161.8	 0.0	 98.0	 -98.0	 1.035	 225.0	 1	 195.6	 128.0; % NG
	10250	 473.2	 0.0	 286.0	 -286.0	 1.035	 650.0	 1	 572.0	 374.4; % COW
	10251	 473.2	 0.0	 286.0	 -286.0	 1.035	 650.0	 1	 572.0	 374.4; % COW
	10252	 473.2	 0.0	 286.0	 -286.0	 1.035	 650.0	 1	 572.0	 374.4; % COW
	10253	 237.5	 0.0	 144.0	 -144.0	 1.035	 341.0	 1	 287.1	 187.9; % NG
	10254	 433.15	 0.0	 262.0	 -262.0	 1.035	 598.0	 1	 523.6	 342.7; % NG
	10255	 152.9	 0.0	 93.0	 -93.0	 1.035	 210.0	 1	 184.8	 121.0; % NG
	10256	 354.9	 0.0	 215.0	 -215.0	 1.035	 489.0	 1	 429.0	 280.8; % COW
	10257	 177.45	 0.0	 108.0	 -108.0	 1.035	 250.0	 1	 214.5	 140.4; % NG
	10258	 163.8	 0.0	 99.0	 -99.0	 1.035	 230.0	 1	 198.0	 129.6; % NG
	10259	 358.55	 0.0	 217.0	 -217.0	 1.035	 519.0	 1	 433.4	 283.7; % NG
	10260	 537.8	 0.0	 326.0	 -326.0	 1.035	 741.0	 1	 650.1	 425.5; % NG
	10261	 765.55	 0.0	 476.0	 -476.0	 1.035	 1100.0	 1	 951.5	 579.6; % COW
	10262	 765.55	 0.0	 476.0	 -476.0	 1.035	 1100.0	 1	 951.5	 579.6; % COW
	10263	 85.55	 0.0	 52.0	 -52.0	 1.035	 121.0	 1	 103.4	 67.7; % NG
	10264	 354.9	 0.0	 215.0	 -215.0	 1.035	 489.0	 1	 429.0	 280.8; % COW
	10265	 354.9	 0.0	 215.0	 -215.0	 1.035	 496.0	 1	 429.0	 280.8; % NG
	10266	 4.55	 0.0	 3.0	 -3.0	 1.035	 72.0	 1	 5.5	 3.6; % PEL
	10267	 5.45	 0.0	 4.0	 -4.0	 1.035	 120.0	 1	 6.6	 4.3; % COW
	10268	 26.4	 0.0	 16.0	 -16.0	 1.035	 37.0	 1	 31.9	 20.9; % COW
	10269	 179.95	 0.0	 146.0	 -146.0	 1.035	 338.0	 1	 291.5	 68.4; % COW
	10270	 0.05	 0.0	 1.0	 -1.0	 1.035	 40.0	 1	 0.1	 0.0; % NG
	10271	 197.45	 0.0	 120.0	 -120.0	 1.035	 286.0	 1	 238.7	 156.2; % NG
	10272	 30.95	 0.0	 19.0	 -19.0	 1.035	 116.0	 1	 37.4	 24.5; % PEL
	10273	 209.3	 0.0	 127.0	 -127.0	 1.035	 321.0	 1	 253.0	 165.6; % COW
	10274	 143.35	 0.0	 113.0	 -113.0	 1.035	 317.0	 1	 225.5	 61.2; % COW
	10275	 65.8	 0.0	 55.0	 -55.0	 1.035	 125.0	 1	 110.0	 21.6; % COW
	10276	 135.6	 0.0	 82.0	 -82.0	 1.035	 189.0	 1	 163.9	 107.3; % NG
	10277	 101.9	 0.0	 62.0	 -62.0	 1.035	 225.0	 1	 123.2	 80.6; % NG
	10278	 163.8	 0.0	 99.0	 -99.0	 1.035	 233.0	 1	 198.0	 129.6; % NG
	10279	 163.8	 0.0	 99.0	 -99.0	 1.035	 233.0	 1	 198.0	 129.6; % NG
	10281	 3.65	 0.0	 3.0	 -3.0	 1.035	 20.0	 1	 4.4	 2.9; % NG
	10282	 172.7	 0.0	 144.0	 -144.0	 1.035	 357.0	 1	 287.1	 58.3; % NG
	10284	 594.7	 0.0	 386.0	 -386.0	 1.035	 919.0	 1	 771.1	 418.3; % COW
	10285	 0.05	 0.0	 1.0	 -1.0	 1.035	 132.0	 1	 0.1	 0.0; % PEL
	10288	 26.4	 0.0	 16.0	 -16.0	 1.035	 63.0	 1	 31.9	 20.9; % NG
	10289	 17.4	 0.0	 18.0	 -18.0	 1.035	 41.0	 1	 34.1	 0.7; % NG
	10290	 35.5	 0.0	 22.0	 -22.0	 1.035	 49.0	 1	 42.9	 28.1; % NG
	10291	 7.3	 0.0	 5.0	 -5.0	 1.035	 71.0	 1	 8.8	 5.8; % PEL
	10292	 394.95	 0.0	 239.0	 -239.0	 1.035	 638.0	 1	 477.4	 312.5; % COW
	10293	 24.55	 0.0	 15.0	 -15.0	 1.035	 46.0	 1	 29.7	 19.4; % PEL
	10294	 10.0	 0.0	 7.0	 -7.0	 1.035	 74.0	 1	 12.1	 7.9; % NG
	10295	 192.0	 0.0	 117.0	 -117.0	 1.035	 299.0	 1	 232.1	 151.9; % NG
	10296	 249.35	 0.0	 151.0	 -151.0	 1.035	 461.0	 1	 301.4	 197.3; % NG
	24	 165.5	 31.0	 111.0	 -49.0	 1.03	 235.3	 1	 221.0	 110.0; % NG
	25	 167.5	 39.0	 100.0	 -22.0	 1.03	 235.3	 1	 200.0	 135.0; % NG
	37	 305.0	 83.0	 185.0	 -19.0	 1.03	 426.0	 1	 370.0	 240.0; % NG
	37	 305.0	 83.0	 185.0	 -19.0	 1.03	 426.0	 1	 370.0	 240.0; % NG
	38	 305.0	 83.0	 185.0	 -19.0	 1.03	 426.0	 1	 370.0	 240.0; % NG
	38	 305.0	 83.0	 185.0	 -19.0	 1.03	 426.0	 1	 370.0	 240.0; % NG
	39	 305.0	 83.0	 185.0	 -19.0	 1.03	 426.0	 1	 370.0	 240.0; % NG
	40	 305.0	 83.0	 185.0	 -19.0	 1.0	 426.0	 1	 370.0	 240.0; % COW
	40	 305.0	 83.0	 185.0	 -19.0	 1.0	 426.0	 1	 370.0	 240.0; % NG
	40	 305.0	 83.0	 185.0	 -19.0	 1.0	 426.0	 1	 370.0	 240.0; % NG
	41	 305.0	 83.0	 185.0	 -19.0	 1.0	 426.0	 1	 370.0	 240.0; % COW
	41	 305.0	 83.0	 185.0	 -19.0	 1.0	 426.0	 1	 370.0	 240.0; % NG
	41	 305.0	 83.0	 185.0	 -19.0	 1.0	 426.0	 1	 370.0	 240.0; % NG
	57	 162.5	 37.5	 108.0	 -33.0	 1.03	 235.0	 1	 215.0	 110.0; % NG
	57	 172.5	 38.5	 110.0	 -33.0	 1.03	 235.0	 1	 220.0	 125.0; % NG
	58	 175.0	 40.0	 113.0	 -33.0	 1.03	 235.0	 1	 225.0	 125.0; % NG
	58	 0.0	 0.0	 113.0	 -33.0	 1.03	 235.0	 0	 225.0	 120.0; % NG
	58	 167.5	 40.0	 113.0	 -33.0	 1.03	 235.0	 1	 225.0	 110.0; % NG
	59	 167.5	 40.0	 113.0	 -33.0	 1.03	 235.0	 1	 225.0	 110.0; % NG
	60	 395.0	 110.5	 268.0	 -47.0	 1.0	 588.0	 1	 535.0	 255.0; % COW
	61	 405.0	 90.0	 280.0	 -100.0	 1.0	 588.0	 1	 560.0	 250.0; % COW
	70	 177.0	 47.0	 105.0	 -11.0	 1.03	 235.0	 1	 225.0	 129.0; % NG
	71	 177.0	 47.0	 105.0	 -11.0	 1.03	 235.0	 1	 225.0	 129.0; % NG
	71	 0.0	 0.0	 99.0	 -10.0	 1.03	 235.0	 0	 225.0	 129.0; % NG
	72	 0.0	 0.0	 105.0	 -11.0	 1.0	 235.0	 0	 225.0	 129.0; % NG
	72	 177.0	 47.0	 105.0	 -11.0	 1.0	 235.0	 1	 225.0	 129.0; % NG
	73	 177.0	 44.5	 99.0	 -10.0	 1.0	 235.0	 1	 225.0	 129.0; % COW
	73	 177.0	 47.0	 105.0	 -11.0	 1.0	 235.0	 1	 225.0	 129.0; % NG
	74	 56.0	 28.0	 56.0	 0.0	 1.03	 120.0	 1	 112.0	 0.0; % COW
	94	 172.5	 52.0	 110.0	 -6.0	 1.03	 270.6	 1	 220.0	 125.0; % NG
	94	 182.5	 53.5	 113.0	 -6.0	 1.03	 270.6	 1	 225.0	 140.0; % NG
	95	 177.5	 53.5	 113.0	 -6.0	 1.03	 270.6	 1	 225.0	 130.0; % COW
	95	 175.0	 53.5	 113.0	 -6.0	 1.03	 270.6	 1	 225.0	 125.0; % NG
	95	 177.5	 53.5	 113.0	 -6.0	 1.03	 270.6	 1	 225.0	 130.0; % NG
	98	 301.5	 80.5	 192.0	 -31.0	 1.0	 426.0	 1	 383.0	 220.0; % NG
	98	 300.0	 44.0	 119.0	 -31.0	 1.0	 435.3	 1	 380.0	 220.0; % NG
	115	 6.0	 0.0	 0.0	 0.0	 1.03	 12.0	 1	 12.0	 0.0; % NG
	115	 3.0	 0.0	 0.0	 0.0	 1.03	 6.0	 1	 6.0	 0.0; % PEL
	121	 0.0	 0.0	 113.0	 -10.0	 1.03	 270.6	 0	 225.0	 120.0; % NG
	122	 172.5	 51.5	 113.0	 -10.0	 1.03	 270.6	 1	 225.0	 120.0; % NG
	123	 95.0	 29.5	 60.0	 -1.0	 1.03	 150.0	 1	 120.0	 70.0; % COW
	124	 95.0	 29.5	 60.0	 -1.0	 1.03	 150.0	 1	 120.0	 70.0; % NG
	134	 0.0	 0.0	 60.0	 0.0	 1.03	 150.0	 0	 120.0	 70.0; % COW
	135	 95.0	 30.0	 60.0	 0.0	 1.03	 150.0	 1	 120.0	 70.0; % NG
	136	 95.0	 15.5	 31.0	 0.0	 1.03	 117.5	 1	 110.0	 80.0; % COW
	144	 175.0	 36.5	 108.0	 -35.0	 1.03	 270.6	 1	 215.0	 135.0; % NG
	145	 175.0	 36.5	 108.0	 -35.0	 1.03	 270.6	 1	 215.0	 135.0; % NG
	145	 180.0	 39.0	 113.0	 -35.0	 1.03	 270.6	 1	 225.0	 135.0; % NG
	146	 180.0	 38.5	 113.0	 -36.0	 1.0	 270.6	 1	 225.0	 135.0; % NG
	146	 177.5	 37.0	 110.0	 -36.0	 1.0	 270.6	 1	 220.0	 135.0; % NG
	152	 0.0	 0.0	 68.0	 -29.0	 1.03	 150.0	 0	 135.0	 -135.0; % NG
	152	 0.0	 0.0	 68.0	 -29.0	 1.03	 150.0	 0	 135.0	 -135.0; % NG
	153	 0.0	 0.0	 68.0	 -29.0	 1.03	 150.0	 0	 135.0	 -135.0; % NG
	153	 0.0	 0.0	 68.0	 -29.0	 1.03	 150.0	 0	 135.0	 -135.0; % NG
	154	 107.0	 22.5	 60.0	 -15.0	 1.03	 150.0	 1	 120.0	 94.0; % NG
	155	 107.0	 22.5	 60.0	 -15.0	 1.03	 150.0	 1	 120.0	 94.0; % COW
	155	 0.0	 0.0	 60.0	 -15.0	 1.03	 150.0	 0	 120.0	 94.0; % COW
	169	 0.0	 0.0	 25.0	 0.0	 1.03	 51.4	 0	 50.0	 40.0; % NG
	170	 0.0	 0.0	 60.0	 -15.0	 1.03	 150.0	 0	 120.0	 80.0; % NG
	170	 0.0	 0.0	 25.0	 0.0	 1.03	 51.4	 0	 50.0	 45.0; % NG
	172	 166.0	 42.5	 116.0	 -31.0	 1.03	 252.4	 1	 232.0	 100.0; % NG
	172	 0.0	 0.0	 103.0	 -21.0	 1.03	 237.5	 0	 205.0	 135.0; % NG
	173	 0.0	 0.0	 103.0	 -21.0	 1.03	 237.5	 0	 205.0	 135.0; % NG
	173	 0.0	 0.0	 102.0	 -15.0	 1.03	 252.4	 0	 222.0	 90.0; % NG
	174	 156.0	 43.5	 102.0	 -15.0	 1.0	 252.4	 1	 222.0	 90.0; % NG
	175	 156.0	 43.5	 102.0	 -15.0	 1.0	 252.4	 1	 222.0	 90.0; % COW
	175	 166.0	 41.5	 93.0	 -10.0	 1.0	 252.4	 1	 232.0	 100.0; % NG
	180	 182.5	 46.0	 127.0	 -35.0	 1.03	 287.3	 1	 261.0	 104.0; % NG
	180	 182.5	 46.0	 127.0	 -35.0	 1.03	 287.3	 1	 261.0	 104.0; % NG
	181	 163.0	 43.0	 103.0	 -17.0	 1.03	 238.4	 1	 206.0	 120.0; % NG
	181	 182.5	 46.0	 127.0	 -35.0	 1.03	 287.3	 1	 261.0	 104.0; % NG
	182	 164.5	 40.0	 118.0	 -38.0	 1.03	 263.9	 1	 235.0	 94.0; % NG
	182	 164.5	 40.0	 118.0	 -38.0	 1.03	 263.9	 1	 235.0	 94.0; % NG
	183	 163.0	 43.0	 103.0	 -17.0	 1.0	 238.4	 1	 206.0	 120.0; % NG
	183	 163.0	 43.0	 103.0	 -17.0	 1.0	 238.4	 1	 206.0	 120.0; % NG
	191	 175.0	 38.5	 100.0	 -23.0	 1.03	 233.2	 1	 200.0	 150.0; % NG
	192	 175.0	 38.5	 100.0	 -23.0	 1.03	 233.2	 1	 200.0	 150.0; % COW
	192	 0.0	 0.0	 100.0	 -23.0	 1.03	 233.2	 0	 200.0	 145.0; % NG
	192	 0.0	 0.0	 100.0	 -23.0	 1.03	 233.2	 0	 200.0	 145.0; % NG
	193	 336.0	 0.0	 232.0	 -232.0	 1.0	 464.0	 1	 464.0	 208.0; % COW
	208	 132.0	 47.0	 94.0	 0.0	 1.03	 218.3	 1	 188.0	 76.0; % NG
	240	 -10.5	 14.0	 90.0	 -62.0	 1.0	 209.0	 1	 179.0	 -200.0; % NG
	240	 -10.5	 14.0	 90.0	 -62.0	 1.0	 209.0	 1	 179.0	 -200.0; % NG
	240	 0.0	 0.0	 90.0	 -90.0	 1.0	 209.0	 0	 179.0	 -200.0; % COW
	241	 -10.5	 0.0	 90.0	 -90.0	 1.0	 209.0	 1	 179.0	 -200.0; % NG
	244	 166.25	 50.0	 100.0	 0.0	 1.03	 177.1	 1	 220.0	 112.5; % NG
	254	 39.0	 10.0	 20.0	 0.0	 1.035	 78.8	 1	 55.0	 23.0; % NG
	254	 37.5	 10.0	 20.0	 0.0	 1.035	 68.8	 1	 50.0	 25.0; % NG
	254	 37.5	 10.0	 20.0	 0.0	 1.035	 68.8	 1	 50.0	 25.0; % NG
	254	 15.0	 6.0	 12.0	 0.0	 1.035	 27.6	 1	 23.0	 7.0; % COW
	267	 1.3	 0.5	 1.0	 0.0	 1.035	 0.7	 1	 2.1	 0.5; % PEL
	268	 1.3	 0.5	 1.0	 0.0	 1.035	 0.7	 1	 2.1	 0.5; % PEL
	278	 0.0	 0.0	 4.0	 0.0	 1.035	 10.3	 0	 7.2	 5.9; % PEL
	279	 0.0	 0.0	 4.0	 0.0	 1.035	 10.3	 0	 7.2	 5.9; % COW
	295	 3.0	 1.5	 3.0	 0.0	 1.035	 5.0	 1	 5.0	 1.0; % PEL
	295	 3.0	 1.5	 3.0	 0.0	 1.035	 5.0	 1	 5.0	 1.0; % COW
	295	 3.0	 1.5	 3.0	 0.0	 1.035	 5.0	 1	 5.0	 1.0; % NG
	295	 3.0	 1.5	 3.0	 0.0	 1.035	 5.0	 1	 5.0	 1.0; % NG
	310	 305.0	 83.0	 185.0	 -19.0	 1.035	 426.0	 1	 370.0	 240.0; % COW
	316	 0.0	 0.0	 2.0	 0.0	 1.035	 4.0	 0	 5.7	 1.0; % NG
	316	 0.0	 0.0	 2.0	 0.0	 1.035	 4.0	 0	 5.7	 1.0; % NG
	376	 6.0	 2.0	 4.0	 0.0	 1.035	 8.4	 1	 6.6	 5.4; % PEL
	379	 0.6	 0.5	 1.0	 0.0	 1.035	 0.9	 1	 0.9	 0.3; % PEL
	379	 0.6	 0.5	 1.0	 0.0	 1.035	 0.9	 1	 0.9	 0.3; % PEL
	379	 0.6	 0.5	 1.0	 0.0	 1.035	 0.9	 1	 0.9	 0.3; % PEL
	383	 19.0	 3.5	 7.0	 0.0	 1.035	 31.3	 1	 27.0	 11.0; % PEL
...
];

%% generator cost data
%	2	startup	shutdown	n	c(n-1)	...	c0
mpc.gencost = [
	2	 0.0	 0.0	 3	   0.000000	 198.860000	   0.000000; % NG
	2	 0.0	 0.0	 3	   0.000000	 240.260000	   0.000000; % COW
	2	 0.0	 0.0	 3	   0.000000	 240.260000	   0.000000; % NG
	2	 0.0	 0.0	 3	   0.000000	 240.260000	   0.000000; % COW
	2	 0.0	 0.0	 3	   0.000000	 240.260000	   0.000000; % COW
	2	 0.0	 0.0	 3	   0.000000	 240.260000	   0.000000; % NUC
	2	 0.0	 0.0	 3	   0.000000	 240.260000	   0.000000; % COW
	2	 0.0	 0.0	 3	   0.000000	 240.260000	   0.000000; % COW
	2	 0.0	 0.0	 3	   0.000000	 240.260000	   0.000000; % NG
	2	 0.0	 0.0	 3	   0.000000	 240.260000	   0.000000; % NG
	2	 0.0	 0.0	 3	   0.000000	 240.260000	   0.000000; % NG
	2	 0.0	 0.0	 3	   0.000000	 240.260000	   0.000000; % NG
	2	 0.0	 0.0	 3	   0.000000	 240.260000	   0.000000; % COW
	2	 0.0	 0.0	 3	   0.000000	 240.260000	   0.000000; % COW
	2	 0.0	 0.0	 3	   0.000000	 240.260000	   0.000000; % COW
	2	 0.0	 0.0	 3	   0.000000	 240.260000	   0.000000; % COW
	2	 0.0	 0.0	 3	   0.000000	 240.260000	   0.000000; % COW
	2	 0.0	 0.0	 3	   0.000000	 240.260000	   0.000000; % NG
	2	 0.0	 0.0	 3	   0.000000	 240.260000	   0.000000; % NG
	2	 0.0	 0.0	 3	   0.000000	 240.260000	   0.000000; % NG
	2	 0.0	 0.0	 3	   0.000000	 240.260000	   0.000000; % NG
	2	 0.0	 0.0	 3	   0.000000	 240.260000	   0.000000; % NG
	2	 0.0	 0.0	 3	   0.000000	 236.700000	   0.000000; % NG
	2	 0.0	 0.0	 3	   0.000000	 236.700000	   0.000000; % NG
	2	 0.0	 0.0	 3	   0.000000	 236.700000	   0.000000; % NG
	2	 0.0	 0.0	 3	   0.000000	 236.700000	   0.000000; % NG
	2	 0.0	 0.0	 3	   0.000000	 236.700000	   0.000000; % COW
	2	 0.0	 0.0	 3	   0.000000	 236.700000	   0.000000; % COW
	2	 0.0	 0.0	 3	   0.000000	 236.700000	   0.000000; % NG
	2	 0.0	 0.0	 3	   0.000000	 236.700000	   0.000000; % NG
	2	 0.0	 0.0	 3	   0.000000	 236.700000	   0.000000; % NG
	2	 0.0	 0.0	 3	   0.000000	 100.000000	   0.000000; % NG
	2	 0.0	 0.0	 3	   0.000000	 198.860000	   0.000000; % NG
	2	 0.0	 0.0	 3	   0.000000	 198.860000	   0.000000; % NG
	2	 0.0	 0.0	 3	   0.000000	 198.860000	   0.000000; % NG
	2	 0.0	 0.0	 3	   0.000000	 198.860000	   0.000000; % NG
	2	 0.0	 0.0	 3	   0.000000	 198.860000	   0.000000; % NG
	2	 0.0	 0.0	 3	   0.000000	 198.860000	   0.000000; % PEL
	2	 0.0	 0.0	 3	   0.000000	 198.860000	   0.000000; % NG
	2	 0.0	 0.0	 3	   0.000000	 198.860000	   0.000000; % PEL
	2	 0.0	 0.0	 3	   0.000000	 198.860000	   0.000000; % NG
	2	 0.0	 0.0	 3	   0.000000	 198.860000	   0.000000; % NG
	2	 0.0	 0.0	 3	   0.000000	 198.860000	   0.000000; % NG
	2	 0.0	 0.0	 3	   0.000000	 198.860000	   0.000000; % COW
	2	 0.0	 0.0	 3	   0.000000	 198.860000	   0.000000; % COW
	2	 0.0	 0.0	 3	   0.000000	 198.860000	   0.000000; % NG
	2	 0.0	 0.0	 3	   0.000000	 198.860000	   0.000000; % NG
	2	 0.0	 0.0	 3	   0.000000	 198.860000	   0.000000; % NG
	2	 0.0	 0.0	 3	   0.000000	 198.860000	   0.000000; % NG
	2	 0.0	 0.0	 3	   0.000000	 198.860000	   0.000000; % NG
	2	 0.0	 0.0	 3	   0.000000	 198.860000	   0.000000; % NG
	2	 0.0	 0.0	 3	   0.000000	 198.860000	   0.000000; % COW
	2	 0.0	 0.0	 3	   0.000000	 198.860000	   0.000000; % COW
	2	 0.0	 0.0	 3	   0.000000	 198.860000	   0.000000; % COW
	2	 0.0	 0.0	 3	   0.000000	 198.860000	   0.000000; % NG
	2	 0.0	 0.0	 3	   0.000000	 198.860000	   0.000000; % NG
	2	 0.0	 0.0	 3	   0.000000	 198.860000	   0.000000; % NG
	2	 0.0	 0.0	 3	   0.000000	 198.860000	   0.000000; % COW
	2	 0.0	 0.0	 3	   0.000000	 198.860000	   0.000000; % NG
	2	 0.0	 0.0	 3	   0.000000	 198.860000	   0.000000; % NG
	2	 0.0	 0.0	 3	   0.000000	 198.860000	   0.000000; % NG
	2	 0.0	 0.0	 3	   0.000000	 198.860000	   0.000000; % NG
	2	 0.0	 0.0	 3	   0.000000	 198.860000	   0.000000; % COW
	2	 0.0	 0.0	 3	   0.000000	 198.860000	   0.000000; % COW
	2	 0.0	 0.0	 3	   0.000000	 198.860000	   0.000000; % NG
	2	 0.0	 0.0	 3	   0.000000	 198.860000	   0.000000; % COW
	2	 0.0	 0.0	 3	   0.000000	 198.860000	   0.000000; % NG
	2	 0.0	 0.0	 3	   0.000000	 198.860000	   0.000000; % PEL
	2	 0.0	 0.0	 3	   0.000000	 198.860000	   0.000000; % COW
	2	 0.0	 0.0	 3	   0.000000	 198.860000	   0.000000; % COW
	2	 0.0	 0.0	 3	   0.000000	 198.860000	   0.000000; % COW
	2	 0.0	 0.0	 3	   0.000000	 198.860000	   0.000000; % NG
	2	 0.0	 0.0	 3	   0.000000	 198.860000	   0.000000; % NG
	2	 0.0	 0.0	 3	   0.000000	 198.860000	   0.000000; % PEL
	2	 0.0	 0.0	 3	   0.000000	 198.860000	   0.000000; % COW
	2	 0.0	 0.0	 3	   0.000000	 198.860000	   0.000000; % COW
	2	 0.0	 0.0	 3	   0.000000	 198.860000	   0.000000; % COW
	2	 0.0	 0.0	 3	   0.000000	 198.860000	   0.000000; % NG
	2	 0.0	 0.0	 3	   0.000000	 198.860000	   0.000000; % NG
	2	 0.0	 0.0	 3	   0.000000	 198.860000	   0.000000; % NG
	2	 0.0	 0.0	 3	   0.000000	 198.860000	   0.000000; % NG
	2	 0.0	 0.0	 3	   0.000000	 198.860000	   0.000000; % NG
	2	 0.0	 0.0	 3	   0.000000	 198.860000	   0.000000; % NG
	2	 0.0	 0.0	 3	   0.000000	 198.860000	   0.000000; % COW
	2	 0.0	 0.0	 3	   0.000000	 198.860000	   0.000000; % PEL
	2	 0.0	 0.0	 3	   0.000000	 198.860000	   0.000000; % NG
	2	 0.0	 0.0	 3	   0.000000	 198.860000	   0.000000; % NG
	2	 0.0	 0.0	 3	   0.000000	 198.860000	   0.000000; % NG
	2	 0.0	 0.0	 3	   0.000000	 198.860000	   0.000000; % PEL
	2	 0.0	 0.0	 3	   0.000000	 198.860000	   0.000000; % COW
	2	 0.0	 0.0	 3	   0.000000	 198.860000	   0.000000; % PEL
	2	 0.0	 0.0	 3	   0.000000	 198.860000	   0.000000; % NG
	2	 0.0	 0.0	 3	   0.000000	 198.860000	   0.000000; % NG
	2	 0.0	 0.0	 3	   0.000000	 198.860000	   0.000000; % NG
	2	 0.0	 0.0	 3	   0.000000	 158.610000	   0.000000; % NG
	2	 0.0	 0.0	 3	   0.000000	 158.610000	   0.000000; % NG
	2	 0.0	 0.0	 3	   0.000000	 107.030000	   0.000000; % NG
	2	 0.0	 0.0	 3	   0.000000	 107.030000	   0.000000; % NG
	2	 0.0	 0.0	 3	   0.000000	 107.030000	   0.000000; % NG
	2	 0.0	 0.0	 3	   0.000000	 107.030000	   0.000000; % NG
	2	 0.0	 0.0	 3	   0.000000	 107.030000	   0.000000; % NG
	2	 0.0	 0.0	 3	   0.000000	 107.030000	   0.000000; % COW
	2	 0.0	 0.0	 3	   0.000000	 107.030000	   0.000000; % NG
	2	 0.0	 0.0	 3	   0.000000	 107.030000	   0.000000; % NG
	2	 0.0	 0.0	 3	   0.000000	 107.030000	   0.000000; % COW
	2	 0.0	 0.0	 3	   0.000000	 107.030000	   0.000000; % NG
	2	 0.0	 0.0	 3	   0.000000	 107.030000	   0.000000; % NG
	2	 0.0	 0.0	 3	   0.000000	 143.520000	   0.000000; % NG
	2	 0.0	 0.0	 3	   0.000000	 143.520000	   0.000000; % NG
	2	 0.0	 0.0	 3	   0.000000	 143.520000	   0.000000; % NG
	2	 0.0	 0.0	 3	   0.000000	 143.520000	   0.000000; % NG
	2	 0.0	 0.0	 3	   0.000000	 143.520000	   0.000000; % NG
	2	 0.0	 0.0	 3	   0.000000	 143.520000	   0.000000; % NG
	2	 0.0	 0.0	 3	   0.000000	 143.520000	   0.000000; % COW
	2	 0.0	 0.0	 3	   0.000000	 143.520000	   0.000000; % COW
	2	 0.0	 0.0	 3	   0.000000	 148.160000	   0.000000; % NG
	2	 0.0	 0.0	 3	   0.000000	 148.160000	   0.000000; % NG
	2	 0.0	 0.0	 3	   0.000000	 148.160000	   0.000000; % NG
	2	 0.0	 0.0	 3	   0.000000	 148.160000	   0.000000; % NG
	2	 0.0	 0.0	 3	   0.000000	 148.160000	   0.000000; % NG
	2	 0.0	 0.0	 3	   0.000000	 148.160000	   0.000000; % COW
	2	 0.0	 0.0	 3	   0.000000	 148.160000	   0.000000; % NG
	2	 0.0	 0.0	 3	   0.000000	   0.000000	   0.000000; % COW
	2	 0.0	 0.0	 3	   0.000000	 134.040000	   0.000000; % NG
	2	 0.0	 0.0	 3	   0.000000	 134.040000	   0.000000; % NG
	2	 0.0	 0.0	 3	   0.000000	 134.040000	   0.000000; % COW
	2	 0.0	 0.0	 3	   0.000000	 134.040000	   0.000000; % NG
	2	 0.0	 0.0	 3	   0.000000	 134.040000	   0.000000; % NG
	2	 0.0	 0.0	 3	   0.000000	 126.620000	   0.000000; % NG
	2	 0.0	 0.0	 3	   0.000000	 126.620000	   0.000000; % NG
	2	 0.0	 0.0	 3	   0.000000	   0.000000	   0.000000; % NG
	2	 0.0	 0.0	 3	   0.000000	   0.000000	   0.000000; % PEL
	2	 0.0	 0.0	 3	   0.000000	 130.490000	   0.000000; % NG
	2	 0.0	 0.0	 3	   0.000000	 130.490000	   0.000000; % NG
	2	 0.0	 0.0	 3	   0.000000	 132.330000	   0.000000; % COW
	2	 0.0	 0.0	 3	   0.000000	 132.330000	   0.000000; % NG
	2	 0.0	 0.0	 3	   0.000000	 136.590000	   0.000000; % COW
	2	 0.0	 0.0	 3	   0.000000	 136.590000	   0.000000; % NG
	2	 0.0	 0.0	 3	   0.000000	 139.960000	   0.000000; % COW
	2	 0.0	 0.0	 3	   0.000000	 128.210000	   0.000000; % NG
	2	 0.0	 0.0	 3	   0.000000	 128.210000	   0.000000; % NG
	2	 0.0	 0.0	 3	   0.000000	 128.210000	   0.000000; % NG
	2	 0.0	 0.0	 3	   0.000000	 128.210000	   0.000000; % NG
	2	 0.0	 0.0	 3	   0.000000	 128.210000	   0.000000; % NG
	2	 0.0	 0.0	 3	   0.000000	 137.400000	   0.000000; % NG
	2	 0.0	 0.0	 3	   0.000000	 137.400000	   0.000000; % NG
	2	 0.0	 0.0	 3	   0.000000	 137.400000	   0.000000; % NG
	2	 0.0	 0.0	 3	   0.000000	 137.400000	   0.000000; % NG
	2	 0.0	 0.0	 3	   0.000000	 129.990000	   0.000000; % NG
	2	 0.0	 0.0	 3	   0.000000	 129.990000	   0.000000; % COW
	2	 0.0	 0.0	 3	   0.000000	 129.990000	   0.000000; % COW
	2	 0.0	 0.0	 3	   0.000000	 135.600000	   0.000000; % NG
	2	 0.0	 0.0	 3	   0.000000	 135.600000	   0.000000; % NG
	2	 0.0	 0.0	 3	   0.000000	 135.600000	   0.000000; % NG
	2	 0.0	 0.0	 3	   0.000000	 163.160000	   0.000000; % NG
	2	 0.0	 0.0	 3	   0.000000	 163.160000	   0.000000; % NG
	2	 0.0	 0.0	 3	   0.000000	 163.160000	   0.000000; % NG
	2	 0.0	 0.0	 3	   0.000000	 163.160000	   0.000000; % NG
	2	 0.0	 0.0	 3	   0.000000	 163.160000	   0.000000; % NG
	2	 0.0	 0.0	 3	   0.000000	 163.160000	   0.000000; % COW
	2	 0.0	 0.0	 3	   0.000000	 163.160000	   0.000000; % NG
	2	 0.0	 0.0	 3	   0.000000	 139.010000	   0.000000; % NG
	2	 0.0	 0.0	 3	   0.000000	 139.010000	   0.000000; % NG
	2	 0.0	 0.0	 3	   0.000000	 139.010000	   0.000000; % NG
	2	 0.0	 0.0	 3	   0.000000	 139.010000	   0.000000; % NG
	2	 0.0	 0.0	 3	   0.000000	 139.010000	   0.000000; % NG
	2	 0.0	 0.0	 3	   0.000000	 139.010000	   0.000000; % NG
	2	 0.0	 0.0	 3	   0.000000	 139.010000	   0.000000; % NG
	2	 0.0	 0.0	 3	   0.000000	 139.010000	   0.000000; % NG
	2	 0.0	 0.0	 3	   0.000000	 125.480000	   0.000000; % NG
	2	 0.0	 0.0	 3	   0.000000	 125.480000	   0.000000; % COW
	2	 0.0	 0.0	 3	   0.000000	 125.480000	   0.000000; % NG
	2	 0.0	 0.0	 3	   0.000000	 125.480000	   0.000000; % NG
	2	 0.0	 0.0	 3	   0.000000	 125.480000	   0.000000; % COW
	2	 0.0	 0.0	 3	   0.000000	 137.400000	   0.000000; % NG
	2	 0.0	 0.0	 3	   0.000000	 137.400000	   0.000000; % NG
	2	 0.0	 0.0	 3	   0.000000	 137.400000	   0.000000; % NG
	2	 0.0	 0.0	 3	   0.000000	 137.400000	   0.000000; % COW
	2	 0.0	 0.0	 3	   0.000000	 137.400000	   0.000000; % NG
	2	 0.0	 0.0	 3	   0.000000	   0.000000	   0.000000; % NG
	2	 0.0	 0.0	 3	   0.000000	   0.000000	   0.000000; % NG
	2	 0.0	 0.0	 3	   0.000000	   0.000000	   0.000000; % NG
	2	 0.0	 0.0	 3	   0.000000	   0.000000	   0.000000; % NG
	2	 0.0	 0.0	 3	   0.000000	   0.000000	   0.000000; % COW
	2	 0.0	 0.0	 3	   0.000000	   0.000000	   0.000000; % PEL
	2	 0.0	 0.0	 3	   0.000000	   0.000000	   0.000000; % PEL
	2	 0.0	 0.0	 3	   0.000000	   0.000000	   0.000000; % PEL
	2	 0.0	 0.0	 3	   0.000000	   0.000000	   0.000000; % COW
	2	 0.0	 0.0	 3	   0.000000	   0.000000	   0.000000; % PEL
	2	 0.0	 0.0	 3	   0.000000	   0.000000	   0.000000; % COW
	2	 0.0	 0.0	 3	   0.000000	   0.000000	   0.000000; % NG
	2	 0.0	 0.0	 3	   0.000000	   0.000000	   0.000000; % NG
	2	 0.0	 0.0	 3	   0.000000	 107.030000	   0.000000; % COW
	2	 0.0	 0.0	 3	   0.000000	   0.000000	   0.000000; % NG
	2	 0.0	 0.0	 3	   0.000000	   0.000000	   0.000000; % NG
	2	 0.0	 0.0	 3	   0.000000	   0.000000	   0.000000; % PEL
	2	 0.0	 0.0	 3	   0.000000	   0.000000	   0.000000; % PEL
	2	 0.0	 0.0	 3	   0.000000	   0.000000	   0.000000; % PEL
	2	 0.0	 0.0	 3	   0.000000	   0.000000	   0.000000; % PEL
	2	 0.0	 0.0	 3	   0.000000	   0.000000	   0.000000; % PEL
...
];

%% branch data
%	fbus	tbus	r	x	b	rateA	rateB	rateC	ratio	angle	status	angmin	angmax
mpc.branch = [
	10330	 10331	 1e-05	 8e-05	 0.0	 183	 183	 183	 0.0	 0.0	 1	 -30.0	 30.0;
	10300	 10355	 0.05932	 0.20245	 0.0	 122	 122	 122	 0.0	 0.0	 1	 -30.0	 30.0;
	10300	 10360	 0.02058	 0.05185	 0.0	 106	 106	 106	 0.0	 0.0	 1	 -30.0	 30.0;
	10367	 10201	 2e-05	 -0.04958	 0.0	 659	 659	 659	 0.999	 0.0	 1	 -30.0	 30.0;
	10367	 10202	 6e-05	 0.08346	 0.0	 391	 391	 391	 0.99999	 0.0	 1	 -30.0	 30.0;
	10366	 10367	 0.0026	 0.25917	 0.0	 127	 127	 127	 0.99999	 0.0	 1	 -30.0	 30.0;
	10368	 10215	 2e-05	 -0.04961	 0.0	 659	 659	 659	 0.999	 0.0	 1	 -30.0	 30.0;
	10368	 10216	 6e-05	 0.08373	 0.0	 390	 390	 390	 0.99999	 0.0	 1	 -30.0	 30.0;
	10369	 10368	 0.0026	 0.26125	 0.0	 126	 126	 126	 0.99999	 0.0	 1	 -30.0	 30.0;
	10090	 10083	 8e-05	 0.00079	 0.41456	 736	 736	 736	 0.0	 0.0	 1	 -30.0	 30.0;
	10138	 10164	 0.00168	 0.01733	 0.75504	 752	 752	 752	 0.0	 0.0	 1	 -30.0	 30.0;
	10139	 10109	 0.00071	 0.00594	 0.27872	 680	 680	 680	 0.0	 0.0	 1	 -30.0	 30.0;
	10139	 10144	 0.00075	 0.00681	 0.312	 707	 707	 707	 0.0	 0.0	 1	 -30.0	 30.0;
	10139	 10153	 0.00194	 0.02	 0.8336	 751	 751	 751	 0.0	 0.0	 1	 -30.0	 30.0;
	10140	 10110	 0.00071	 0.00594	 0.27872	 680	 680	 680	 0.0	 0.0	 1	 -30.0	 30.0;
	10140	 10143	 0.00075	 0.00681	 0.312	 707	 707	 707	 0.0	 0.0	 1	 -30.0	 30.0;
	10140	 10153	 0.00194	 0.02	 0.8336	 751	 751	 751	 0.0	 0.0	 1	 -30.0	 30.0;
	10141	 10153	 0.00233	 0.01696	 0.70784	 637	 637	 637	 0.0	 0.0	 1	 -30.0	 30.0;
	10090	 10085	 0.00017	 0.00148	 1.23008	 693	 693	 693	 0.0	 0.0	 1	 -30.0	 30.0;
	10141	 10158	 0.00204	 0.01707	 0.71344	 680	 680	 680	 0.0	 0.0	 1	 -30.0	 30.0;
	10141	 10158	 0.00204	 0.01707	 0.71344	 680	 680	 680	 0.0	 0.0	 1	 -30.0	 30.0;
	10143	 10144	 1e-05	 6e-05	 0.0	 581	 581	 581	 0.0	 0.0	 1	 -30.0	 30.0;
	10143	 10153	 0.00169	 0.01381	 0.6496	 673	 673	 673	 0.0	 0.0	 1	 -30.0	 30.0;
	10143	 10156	 0.00119	 0.00969	 0.4544	 672	 672	 672	 0.0	 0.0	 1	 -30.0	 30.0;
	10144	 10126	 0.00306	 0.02537	 1.19168	 677	 677	 677	 0.0	 0.0	 1	 -30.0	 30.0;
	10144	 10153	 0.00169	 0.01381	 0.6496	 673	 673	 673	 0.0	 0.0	 1	 -30.0	 30.0;
	10144	 10165	 0.00244	 0.02044	 0.9584	 681	 681	 681	 0.0	 0.0	 1	 -30.0	 30.0;
	10091	 10090	 9e-05	 0.00106	 1.10432	 801	 801	 801	 0.0	 0.0	 1	 -30.0	 30.0;
	10145	 10147	 0.00194	 0.01606	 0.75456	 677	 677	 677	 0.0	 0.0	 1	 -30.0	 30.0;
	10145	 10158	 0.00189	 0.01232	 0.61088	 604	 604	 604	 0.0	 0.0	 1	 -30.0	 30.0;
	10171	 10094	 0.0	 6e-05	 0.0	 479684	 479684	 479684	 0.0	 0.0	 1	 -30.0	 30.0;
	10145	 10082	 0.00091	 0.00923	 0.39197	 746	 746	 746	 0.0	 0.0	 1	 -30.0	 30.0;
	10145	 10082	 0.00091	 0.00923	 0.39197	 746	 746	 746	 0.0	 0.0	 1	 -30.0	 30.0;
	10146	 10154	 0.00503	 0.01845	 0.05812	 253	 253	 253	 0.0	 0.0	 1	 -30.0	 30.0;
	10172	 10095	 0.0	 6e-05	 0.0	 479684	 479684	 479684	 0.0	 0.0	 1	 -30.0	 30.0;
	10147	 10153	 0.00156	 0.01288	 0.6032	 676	 676	 676	 0.0	 0.0	 1	 -30.0	 30.0;
	10173	 10095	 0.0	 6e-05	 0.0	 479684	 479684	 479684	 0.0	 0.0	 1	 -30.0	 30.0;
	10147	 10153	 0.00156	 0.01288	 0.6032	 676	 676	 676	 0.0	 0.0	 1	 -30.0	 30.0;
	10174	 10096	 2e-05	 0.00016	 0.0008	 666	 666	 666	 0.0	 0.0	 1	 -30.0	 30.0;
	10147	 10161	 0.00113	 0.00962	 0.4528	 686	 686	 686	 0.0	 0.0	 1	 -30.0	 30.0;
	10176	 10098	 0.00029	 0.00219	 0.11056	 648	 648	 648	 0.0	 0.0	 1	 -30.0	 30.0;
	10177	 10098	 0.00029	 0.00219	 0.11056	 648	 648	 648	 0.0	 0.0	 1	 -30.0	 30.0;
	10147	 10169	 0.00041	 0.00423	 0.18496	 752	 752	 752	 0.0	 0.0	 1	 -30.0	 30.0;
	10147	 10170	 0.00041	 0.00423	 0.18496	 752	 752	 752	 0.0	 0.0	 1	 -30.0	 30.0;
	10091	 10090	 9e-05	 0.00106	 1.10432	 801	 801	 801	 0.0	 0.0	 1	 -30.0	 30.0;
	10147	 10037	 0.00105	 0.00925	 0.37437	 697	 697	 697	 0.0	 0.0	 1	 -30.0	 30.0;
	10147	 10037	 0.00105	 0.00925	 0.37437	 697	 697	 697	 0.0	 0.0	 1	 -30.0	 30.0;
	10148	 10136	 0.00293	 0.01074	 0.03436	 253	 253	 253	 0.0	 0.0	 1	 -30.0	 30.0;
	10148	 10149	 2e-05	 0.0001	 0.0	 293	 293	 293	 0.0	 0.0	 1	 -30.0	 30.0;
	10149	 10136	 0.00293	 0.01074	 0.03436	 253	 253	 253	 0.0	 0.0	 1	 -30.0	 30.0;
	10149	 10162	 0.01595	 0.06457	 0.17037	 265	 265	 265	 0.0	 0.0	 1	 -30.0	 30.0;
	10151	 10147	 0.00188	 0.01925	 0.8432	 749	 749	 749	 0.0	 0.0	 1	 -30.0	 30.0;
	10152	 10164	 0.00364	 0.03742	 1.6384	 750	 750	 750	 0.0	 0.0	 1	 -30.0	 30.0;
	10156	 10165	 0.00131	 0.011	 0.5168	 681	 681	 681	 0.0	 0.0	 1	 -30.0	 30.0;
	10158	 10081	 0.00127	 0.0132	 0.5505	 754	 754	 754	 0.0	 0.0	 1	 -30.0	 30.0;
	10091	 10164	 0.0023	 0.02084	 0.8752	 707	 707	 707	 0.0	 0.0	 1	 -30.0	 30.0;
	10159	 10163	 0.00517	 0.03967	 0.12439	 359	 359	 359	 0.0	 0.0	 1	 -30.0	 30.0;
	10159	 10163	 0.00517	 0.03967	 0.12439	 359	 359	 359	 0.0	 0.0	 1	 -30.0	 30.0;
	10160	 10137	 0.0099	 0.03659	 0.11674	 254	 254	 254	 0.0	 0.0	 1	 -30.0	 30.0;
	10161	 10145	 0.00088	 0.007	 0.3296	 664	 664	 664	 0.0	 0.0	 1	 -30.0	 30.0;
	10162	 10122	 0.00527	 0.0193	 0.06156	 253	 253	 253	 0.0	 0.0	 1	 -30.0	 30.0;
	10162	 10122	 0.00527	 0.0193	 0.06156	 253	 253	 253	 0.0	 0.0	 1	 -30.0	 30.0;
	10164	 10165	 0.00323	 0.03369	 1.40518	 756	 756	 756	 0.0	 0.0	 1	 -30.0	 30.0;
	10164	 10080	 6e-05	 0.00059	 0.02467	 735	 735	 735	 0.0	 0.0	 1	 -30.0	 30.0;
	10092	 10089	 0.00046	 0.00474	 0.01943	 413	 413	 413	 0.0	 0.0	 1	 -30.0	 30.0;
	10164	 10080	 6e-05	 0.00059	 0.02467	 735	 735	 735	 0.0	 0.0	 1	 -30.0	 30.0;
	10165	 10091	 0.00067	 0.00696	 0.2904	 754	 754	 754	 0.0	 0.0	 1	 -30.0	 30.0;
	10167	 10169	 8e-05	 0.00067	 0.02976	 681	 681	 681	 0.0	 0.0	 1	 -30.0	 30.0;
	10168	 10170	 8e-05	 0.00067	 0.02976	 681	 681	 681	 0.0	 0.0	 1	 -30.0	 30.0;
	10310	 10311	 8e-05	 0.00041	 0.0	 148	 148	 148	 0.0	 0.0	 1	 -30.0	 30.0;
	10330	 10359	 0.01322	 0.04793	 0.0092	 250	 250	 250	 0.0	 0.0	 1	 -30.0	 30.0;
	10331	 10359	 0.01322	 0.04793	 0.0092	 250	 250	 250	 0.0	 0.0	 1	 -30.0	 30.0;
	10092	 10157	 0.00627	 0.02339	 0.07357	 255	 255	 255	 0.0	 0.0	 1	 -30.0	 30.0;
	10346	 10347	 8e-05	 0.00041	 0.0	 148	 148	 148	 0.0	 0.0	 1	 -30.0	 30.0;
	10359	 10310	 0.02975	 0.10992	 0.0219	 127	 127	 127	 0.0	 0.0	 1	 -30.0	 30.0;
	10359	 10311	 0.02975	 0.10992	 0.0219	 127	 127	 127	 0.0	 0.0	 1	 -30.0	 30.0;
	10359	 10346	 0.01157	 0.04298	 0.00859	 127	 127	 127	 0.0	 0.0	 1	 -30.0	 30.0;
	10359	 10347	 0.01157	 0.04298	 0.00859	 127	 127	 127	 0.0	 0.0	 1	 -30.0	 30.0;
	10301	 10319	 0.01298	 0.09959	 0.01949	 180	 180	 180	 0.0	 0.0	 1	 -30.0	 30.0;
	10301	 10319	 0.01298	 0.09959	 0.01949	 180	 180	 180	 0.0	 0.0	 1	 -30.0	 30.0;
	10301	 10327	 0.03223	 0.16033	 0.03037	 146	 146	 146	 0.0	 0.0	 1	 -30.0	 30.0;
	10093	 10088	 0.00046	 0.00474	 0.01943	 413	 413	 413	 0.0	 0.0	 1	 -30.0	 30.0;
	10301	 10327	 0.03223	 0.16033	 0.03037	 146	 146	 146	 0.0	 0.0	 1	 -30.0	 30.0;
	10313	 10314	 1e-05	 0.00041	 0.0	 400	 400	 400	 0.0	 0.0	 1	 -30.0	 30.0;
	10315	 10316	 1e-05	 0.00041	 0.0	 400	 400	 400	 0.0	 0.0	 1	 -30.0	 30.0;
	10315	 10317	 1e-05	 0.00041	 0.0	 400	 400	 400	 0.0	 0.0	 1	 -30.0	 30.0;
	10339	 10313	 0.00012	 0.00118	 0.00028	 202	 202	 202	 0.0	 0.0	 1	 -30.0	 30.0;
	10339	 10340	 1e-05	 0.00041	 0.0	 400	 400	 400	 0.0	 0.0	 1	 -30.0	 30.0;
	10340	 10314	 7e-05	 0.00066	 0.00016	 198	 198	 198	 0.0	 0.0	 1	 -30.0	 30.0;
	10354	 10353	 1e-05	 0.00041	 0.0	 400	 400	 400	 0.0	 0.0	 1	 -30.0	 30.0;
	10303	 10304	 8e-05	 0.00041	 0.0	 148	 148	 148	 0.0	 0.0	 1	 -30.0	 30.0;
	10093	 10157	 0.0064	 0.02314	 0.07299	 251	 251	 251	 0.0	 0.0	 1	 -30.0	 30.0;
	10322	 10323	 8e-05	 0.00041	 0.0	 148	 148	 148	 0.0	 0.0	 1	 -30.0	 30.0;
	10099	 10115	 0.00014	 0.00127	 0.0568	 707	 707	 707	 0.0	 0.0	 1	 -30.0	 30.0;
	10084	 10087	 7e-05	 0.00077	 0.4808	 775	 775	 775	 0.0	 0.0	 1	 -30.0	 30.0;
	10099	 10116	 0.00014	 0.00127	 0.0568	 707	 707	 707	 0.0	 0.0	 1	 -30.0	 30.0;
	10099	 10145	 0.00091	 0.00842	 0.37584	 714	 714	 714	 0.0	 0.0	 1	 -30.0	 30.0;
	10099	 10145	 0.00091	 0.00842	 0.37584	 714	 714	 714	 0.0	 0.0	 1	 -30.0	 30.0;
	10099	 10158	 0.00115	 0.01064	 0.47546	 714	 714	 714	 0.0	 0.0	 1	 -30.0	 30.0;
	10099	 10158	 0.00115	 0.01064	 0.47546	 714	 714	 714	 0.0	 0.0	 1	 -30.0	 30.0;
	10099	 10079	 0.00206	 0.01905	 0.85158	 714	 714	 714	 0.0	 0.0	 1	 -30.0	 30.0;
	10099	 10079	 0.00206	 0.01905	 0.85158	 714	 714	 714	 0.0	 0.0	 1	 -30.0	 30.0;
	10100	 10118	 0.00034	 0.00354	 0.1544	 755	 755	 755	 0.0	 0.0	 1	 -30.0	 30.0;
	10100	 10118	 0.00034	 0.00354	 0.1544	 755	 755	 755	 0.0	 0.0	 1	 -30.0	 30.0;
	10100	 10151	 0.00075	 0.00744	 0.3264	 738	 738	 738	 0.0	 0.0	 1	 -30.0	 30.0;
	10084	 10087	 7e-05	 0.00076	 0.51264	 770	 770	 770	 0.0	 0.0	 1	 -30.0	 30.0;
	10100	 10151	 0.00075	 0.00744	 0.3264	 738	 738	 738	 0.0	 0.0	 1	 -30.0	 30.0;
	10100	 10153	 0.00144	 0.01506	 0.6592	 757	 757	 757	 0.0	 0.0	 1	 -30.0	 30.0;
	10100	 10153	 0.00144	 0.01506	 0.6592	 757	 757	 757	 0.0	 0.0	 1	 -30.0	 30.0;
	10101	 10135	 0.01399	 0.05116	 0.16408	 252	 252	 252	 0.0	 0.0	 1	 -30.0	 30.0;
	10101	 10137	 0.0049	 0.01791	 0.0574	 252	 252	 252	 0.0	 0.0	 1	 -30.0	 30.0;
	10102	 10166	 0.00909	 0.03285	 0.10503	 251	 251	 251	 0.0	 0.0	 1	 -30.0	 30.0;
	10102	 10166	 0.00909	 0.03285	 0.10503	 251	 251	 251	 0.0	 0.0	 1	 -30.0	 30.0;
	10103	 10104	 0.00125	 0.00625	 0.0	 532	 532	 532	 0.0	 0.0	 1	 -30.0	 30.0;
	10103	 10120	 0.00061	 0.00564	 0.252	 713	 713	 713	 0.0	 0.0	 1	 -30.0	 30.0;
	10103	 10120	 0.00061	 0.00564	 0.252	 713	 713	 713	 0.0	 0.0	 1	 -30.0	 30.0;
	10085	 10084	 8e-05	 0.00095	 0.58816	 804	 804	 804	 0.0	 0.0	 1	 -30.0	 30.0;
	10103	 10150	 0.00013	 0.00119	 0.05328	 710	 710	 710	 0.0	 0.0	 1	 -30.0	 30.0;
	10105	 10148	 0.00492	 0.01798	 0.05731	 252	 252	 252	 0.0	 0.0	 1	 -30.0	 30.0;
	10105	 10149	 0.00492	 0.01798	 0.05731	 252	 252	 252	 0.0	 0.0	 1	 -30.0	 30.0;
	10106	 10147	 0.00131	 0.01339	 0.58672	 748	 748	 748	 0.0	 0.0	 1	 -30.0	 30.0;
	10106	 10151	 0.00056	 0.00584	 0.25616	 756	 756	 756	 0.0	 0.0	 1	 -30.0	 30.0;
	10107	 10109	 0.00014	 0.00127	 0.0568	 707	 707	 707	 0.0	 0.0	 1	 -30.0	 30.0;
	10108	 10110	 0.00014	 0.00127	 0.0568	 707	 707	 707	 0.0	 0.0	 1	 -30.0	 30.0;
	10111	 10158	 0.00118	 0.01186	 0.50192	 742	 742	 742	 0.0	 0.0	 1	 -30.0	 30.0;
	10111	 10081	 0.00051	 0.00528	 0.22019	 753	 753	 753	 0.0	 0.0	 1	 -30.0	 30.0;
	10112	 10159	 0.00153	 0.00561	 0.01801	 253	 253	 253	 0.0	 0.0	 1	 -30.0	 30.0;
	10085	 10086	 0.0	 6e-05	 0.0	 479684	 479684	 479684	 0.0	 0.0	 1	 -30.0	 30.0;
	10112	 10159	 0.00109	 0.004	 0.01284	 253	 253	 253	 0.0	 0.0	 1	 -30.0	 30.0;
	10112	 10159	 0.00109	 0.004	 0.01284	 253	 253	 253	 0.0	 0.0	 1	 -30.0	 30.0;
	10113	 10141	 0.00031	 0.00286	 0.12781	 713	 713	 713	 0.0	 0.0	 1	 -30.0	 30.0;
	10113	 10153	 0.00037	 0.00343	 0.15334	 714	 714	 714	 0.0	 0.0	 1	 -30.0	 30.0;
	10114	 10127	 0.01116	 0.04091	 0.13068	 253	 253	 253	 0.0	 0.0	 1	 -30.0	 30.0;
	10183	 10198	 0.00084	 0.01065	 0.39616	 829	 829	 829	 0.0	 0.0	 1	 -30.0	 30.0;
	10183	 10217	 0.00146	 0.01809	 0.63888	 820	 820	 820	 0.0	 0.0	 1	 -30.0	 30.0;
	10184	 10199	 0.01019	 0.06849	 0.1012	 337	 337	 337	 0.0	 0.0	 1	 -30.0	 30.0;
	10184	 10209	 0.01204	 0.06105	 0.08659	 295	 295	 295	 0.0	 0.0	 1	 -30.0	 30.0;
	10184	 10216	 0.01029	 0.0401	 0.10522	 260	 260	 260	 0.0	 0.0	 1	 -30.0	 30.0;
	10185	 10205	 0.00065	 0.00657	 0.2224	 744	 744	 744	 0.0	 0.0	 1	 -30.0	 30.0;
	10186	 10199	 0.00155	 0.01508	 0.02396	 402	 402	 402	 0.0	 0.0	 1	 -30.0	 30.0;
	10187	 10200	 0.00156	 0.01518	 0.02415	 402	 402	 402	 0.0	 0.0	 1	 -30.0	 30.0;
	10188	 10183	 0.00057	 0.00724	 0.26592	 830	 830	 830	 0.0	 0.0	 1	 -30.0	 30.0;
	10189	 10198	 0.00028	 0.00346	 0.1312	 819	 819	 819	 0.0	 0.0	 1	 -30.0	 30.0;
	10192	 10193	 0.0	 0.0001	 0.0	 321643	 321643	 321643	 0.0	 0.0	 1	 -30.0	 30.0;
	10192	 10222	 0.00488	 0.0332	 0.05542	 339	 339	 339	 0.0	 0.0	 1	 -30.0	 30.0;
	10196	 10208	 0.00059	 0.00752	 0.26672	 831	 831	 831	 0.0	 0.0	 1	 -30.0	 30.0;
	10197	 10215	 0.00092	 0.01193	 0.47104	 838	 838	 838	 0.0	 0.0	 1	 -30.0	 30.0;
	10198	 10208	 0.00081	 0.00867	 0.27808	 765	 765	 765	 0.0	 0.0	 1	 -30.0	 30.0;
	10199	 10200	 0.0	 0.0001	 0.0	 321643	 321643	 321643	 0.0	 0.0	 1	 -30.0	 30.0;
	10199	 10211	 0.00752	 0.04678	 0.06534	 325	 325	 325	 0.0	 0.0	 1	 -30.0	 30.0;
	10201	 10213	 0.00112	 0.01179	 0.35472	 759	 759	 759	 0.0	 0.0	 1	 -30.0	 30.0;
	10201	 10220	 0.00156	 0.01658	 0.4112	 762	 762	 762	 0.0	 0.0	 1	 -30.0	 30.0;
	10202	 10193	 0.01	 0.06793	 0.1134	 339	 339	 339	 0.0	 0.0	 1	 -30.0	 30.0;
	10202	 10203	 0.0	 0.0001	 0.0	 321643	 321643	 321643	 0.0	 0.0	 1	 -30.0	 30.0;
	10202	 10206	 0.03436	 0.16971	 0.24563	 186	 186	 186	 0.0	 0.0	 1	 -30.0	 30.0;
	10202	 10222	 0.00595	 0.04035	 0.06732	 339	 339	 339	 0.0	 0.0	 1	 -30.0	 30.0;
	10204	 10210	 0.00214	 0.02232	 0.71616	 756	 756	 756	 0.0	 0.0	 1	 -30.0	 30.0;
	10205	 10213	 0.00154	 0.01628	 0.52272	 761	 761	 761	 0.0	 0.0	 1	 -30.0	 30.0;
	10205	 10215	 0.00078	 0.00855	 0.2736	 774	 774	 774	 0.0	 0.0	 1	 -30.0	 30.0;
	10205	 10217	 0.00108	 0.01152	 0.352	 764	 764	 764	 0.0	 0.0	 1	 -30.0	 30.0;
	10206	 10216	 0.01105	 0.05364	 0.07957	 289	 289	 289	 0.0	 0.0	 1	 -30.0	 30.0;
	10207	 10210	 0.00185	 0.01772	 0.57632	 726	 726	 726	 0.0	 0.0	 1	 -30.0	 30.0;
	10207	 10220	 0.00156	 0.01757	 0.552	 784	 784	 784	 0.0	 0.0	 1	 -30.0	 30.0;
	10208	 10214	 0.00058	 0.0082	 0.28864	 874	 874	 874	 0.0	 0.0	 1	 -30.0	 30.0;
	10212	 10216	 0.00504	 0.0312	 0.05087	 324	 324	 324	 0.0	 0.0	 1	 -30.0	 30.0;
	10212	 10216	 0.00504	 0.0312	 0.05087	 324	 324	 324	 0.0	 0.0	 1	 -30.0	 30.0;
	10215	 10217	 0.00033	 0.00346	 0.1112	 758	 758	 758	 0.0	 0.0	 1	 -30.0	 30.0;
	10218	 10190	 0.0001	 0.00123	 0.04912	 817	 817	 817	 0.0	 0.0	 1	 -30.0	 30.0;
	10218	 10197	 0.00086	 0.01148	 0.4	 850	 850	 850	 0.0	 0.0	 1	 -30.0	 30.0;
	10218	 10204	 0.00026	 0.00286	 0.08848	 775	 775	 775	 0.0	 0.0	 1	 -30.0	 30.0;
	10218	 10219	 0.0	 6e-05	 0.0	 479684	 479684	 479684	 0.0	 0.0	 1	 -30.0	 30.0;
	10219	 10191	 0.0001	 0.00124	 0.04976	 821	 821	 821	 0.0	 0.0	 1	 -30.0	 30.0;
	10219	 10198	 0.00104	 0.01237	 0.37936	 805	 805	 805	 0.0	 0.0	 1	 -30.0	 30.0;
	10219	 10204	 0.00026	 0.00307	 0.1088	 802	 802	 802	 0.0	 0.0	 1	 -30.0	 30.0;
	10220	 10194	 9e-05	 0.00101	 0.03168	 782	 782	 782	 0.0	 0.0	 1	 -30.0	 30.0;
	10220	 10195	 9e-05	 0.00097	 0.03072	 768	 768	 768	 0.0	 0.0	 1	 -30.0	 30.0;
	10114	 10128	 0.01116	 0.04091	 0.13068	 253	 253	 253	 0.0	 0.0	 1	 -30.0	 30.0;
	10180	 10064	 0.01085	 0.05289	 0.08301	 289	 289	 289	 0.0	 0.0	 1	 -30.0	 30.0;
	10181	 10064	 0.01085	 0.05289	 0.08301	 289	 289	 289	 0.0	 0.0	 1	 -30.0	 30.0;
	10182	 10063	 0.00065	 0.00924	 0.276	 876	 876	 876	 0.0	 0.0	 1	 -30.0	 30.0;
	10178	 10204	 0.00078	 0.00875	 0.13616	 782	 782	 782	 0.0	 0.0	 1	 -30.0	 30.0;
	10114	 10148	 0.00864	 0.03777	 0.0848	 275	 275	 275	 0.0	 0.0	 1	 -30.0	 30.0;
...